306
 energy: -589.308929338317 gnorm: 0.007706221828 xtb: 6.6.1 (8d0f1dd)
N            3.10666440020000       -0.00000000010011       -0.00000000029866
F           -3.03282176609990        0.00000000000001        0.00000000019996
H            3.40910505194810       -0.97075926718101       -0.06475963008470
H            3.45475273505219        0.53935572445089       -0.79090464221545
H            3.41032321453033        0.40293587082996        0.88290254090500
H            2.00446531330000       -0.00000000000001        0.00000000019995
O            1.58852577796967        1.91283889055721       -1.74049264388539
H            1.79970446826565        2.84162868152867       -1.54391024974271
H            0.88484821098373        1.69046700370467       -1.11099581381473
O            4.15995813965477       -2.21849824305448       -1.16659661175782
H            3.56814197388514       -1.92563782194988       -1.87711494943672
H            4.32016221145485       -3.15403963577058       -1.36842621888819
O            3.73137654069736        2.80231105786721        0.05102641982730
H            3.05215615105701        2.60790681947160        0.71374376441733
H            4.08459000906629        3.67592483376154        0.30122853625572
O            4.69324087667644        5.18057939041168        1.09126577088764
H            4.92065342842263        4.62585676427259        1.85872995391689
H            3.79331659775659        5.47798042808845        1.28508806765281
O            5.24460073658330       -0.17104124611512        4.71190215496728
H            4.77655930218162       -1.01737700054631        4.84432216686578
H            6.15242822687945       -0.40256871371020        4.46955615081086
O           -2.18645493292816        0.46278604224165        2.35544697908687
H           -1.94648805023711       -0.37264784283193        2.78792006118167
H           -2.33084108107890        0.21855332984778        1.41294429356170
O            4.28362959787359        1.23567005304166       -2.21712823849065
H            3.74672268403213        2.03218751902413       -2.06570833846729
H            3.73679594327365        0.66323089172686       -2.78234563299251
O           -1.31517102597747       -2.00149122552634        1.50786891824941
H           -1.87590770804897       -1.73305023806567        0.76242493978855
H           -1.23945688840183       -2.96367467504934        1.39771566522960
O           -6.51370363814540       -0.96205379810689       -0.75318666500102
H           -7.19530472508179       -1.21812343642501       -1.39753374273639
H           -6.83092667415813       -0.14575926691596       -0.33436913356847
O            4.95838619210338        3.08397837539945        2.89899421425206
H            4.61549054982452        2.37504902178703        2.33830923765242
H            5.90972165912452        2.90168732920473        2.95884672448803
O            1.11220275102804       -2.22560732877081       -0.48820537938410
H            0.15687887775717       -2.08892637000847       -0.59074313899342
H            1.40208861982192       -2.52536168218571       -1.36933967166197
O            2.14771979985337        1.96253533101633        2.22418178639320
H            2.41978909601382        1.81645503803500        3.15217219889509
H            1.37753423715574        1.38960871979400        2.09376716644580
O            6.24705627090989        1.43609659770521       -0.03482631152197
H            5.76509267114768        0.99543912809646        0.68561979629251
H            5.60863828273993        2.06559605181875       -0.40391414451468
O            4.79308829723257        0.34700778940066        2.10762142427354
H            4.88797693223077        0.31428371993341        3.08447748275032
H            4.83587936497625       -0.59131753696799        1.85971665545600
O            7.42958061693934       -0.35493979586004        2.90222057059109
H            6.99630760878364       -0.67245747515432        2.09199578633899
H            7.45349344299944        0.61313871494298        2.79015745741199
O            1.97524772647779        4.73493429151443        1.64692773999144
H            1.06674337064299        4.98225644148424        1.86674062833112
H            2.04178511140257        3.82017265944577        1.96971402308644
O           -3.68111710127356       -3.92410130977463        2.59411243612981
H           -3.43487249667782       -3.61444641887460        3.48134176349769
H           -2.89647592020643       -4.33511686871642        2.21388964972782
O            1.39672451449418       -0.38314523858703        4.80248067515975
H            1.54403523584903        0.54933701656050        5.01201810667402
H            1.36954929133652       -0.40465269445507        3.82945627748234
O           -3.95154495835348       -0.66523199559238       -2.18752112830797
H           -3.56486485078767       -0.31925848430445       -1.34496029859958
H           -4.86852855193968       -0.84261887390663       -1.92870874099276
O           -5.59533273956860        3.23333849983717        1.84104499015710
H           -5.37221449364864        3.89256800334369        1.16508498072051
H           -4.82103874326652        3.21386591452471        2.42959160838602
O           -4.97010609894022        0.35264581842840        1.59261277750597
H           -5.15613688081414        0.69207940325913        0.70040193885265
H           -4.02349337063588        0.52969168725330        1.69065191009381
O           -2.72856184246100        2.60691735734422        0.29127566807746
H           -3.52303418626884        3.15532673463139        0.27532020301771
H           -3.01276428636489        1.70556448189222        0.04363783597475
O           -5.16819999456215        1.81905296184181       -0.95421919316249
H           -4.56946748861659        2.42339686986530       -1.42548076408161
H           -5.57188389428815        1.28611812868191       -1.66449850890924
O           -0.93463492334967        1.68880107676105       -3.71738911667223
H           -1.86481645165204        1.66323107676239       -3.98289750132584
H           -0.83934885314321        2.45985424617907       -3.13124474560371
O            6.36357320329729       -1.55221179245625        0.60556397440344
H            5.71272808748973       -2.26502016313512        0.62857028188960
H            6.33639855699743       -1.24914193795693       -0.31976468438900
O            1.59627247806494       -3.47703369240353       -2.97239639271161
H            0.77499588436232       -4.00284422968694       -3.01298594982550
H            1.61812656325304       -2.97758715310048       -3.79903782151393
O            1.13775045893652       -0.72696631912231        2.01278095400806
H            1.70328594680388       -1.51430073904992        2.03273615483975
H            0.26351462175495       -1.08579266714684        1.77324576829947
O           -7.43796532866518        1.30804640554364        0.79747923893049
H           -6.81505015037542        2.01772498507270        1.02711110247559
H           -7.48966073955490        0.76680426630713        1.60466528541455
O           -0.58482666400106        3.91697684363278        2.34867031999681
H           -1.52070471829217        3.83805224593325        2.61928772102863
H           -0.14865798760810        3.31525101079678        2.97824428254896
O            4.20080175735977       -4.78753871275768        0.26238153679950
H            5.15262068394537       -4.76228197290088        0.45680760647388
H            4.17475521216162       -4.95765309857976       -0.69315209339667
O            7.57183406095137        2.37301774526098        2.24210324397382
H            8.54243106262811        2.34381822794640        2.22224153076168
H            7.31834541568174        2.32391134295686        1.30494991437462
O           -0.87769138599778        3.57295689232226       -1.65941273914782
H           -0.01225737795052        4.01691906676515       -1.57783279432418
H           -0.92901767904666        2.98301317829617       -0.88889171946716
O           -1.21589653036234       -1.21288656200510        4.38304130229620
H           -0.36340535599429       -0.88474625835065        4.72817981311655
H           -0.98358728099518       -1.98151542671409        3.84058282723859
O            6.36535454052558       -0.64308494347196       -2.02159170242613
H            5.74006982405246        0.08155731689193       -1.87999292805461
H            7.01853538409501       -0.30759236690182       -2.66433813528725
O            8.59232477428949       -2.35496781736108       -1.21710834240103
H            7.80016141015851       -2.70225930974935       -0.78077515851420
H            8.40820510390326       -2.42732814320119       -2.17752046619154
O           -3.95363433798137       -2.37003728928842        0.32768263798701
H           -4.01180831792324       -2.79795697036455        1.19786342950767
H           -4.03753432505115       -1.41465585330541        0.46990892042147
O           -5.01733442414857       -1.57615819859691        3.62587460179340
H           -4.54667188393083       -1.02099351898286        2.99169999342858
H           -5.37789094781129       -2.28803512605341        3.06992140115796
O           -6.37493143587993       -2.77311479363684        1.51390593466897
H           -7.29967803841957       -3.04891348035615        1.48177938919666
H           -6.25985026036179       -2.21752872724618        0.72339346808768
O           -7.78502999248451       -0.63412945903584        2.78485440320501
H           -6.86368348507479       -0.92445658619690        2.84741296756505
H           -8.23876801171336       -1.35844122863752        2.32689435052742
O           -2.98901604450852       -5.09863482658867       -1.08117368957687
H           -3.40462705108228       -4.93213477715956       -1.93574166089075
H           -3.76816627607790       -5.14434522983489       -0.48193013883701
O           -0.25099339710393        1.69609146904136        3.92275885325404
H           -0.84280695021916        1.73946988981824        4.68369356857668
H           -0.76912742816514        1.20251447110931        3.26378235596966
O           -3.74509927788246        1.33691457529487       -3.96718480852641
H           -4.68605983410986        1.44354538890038       -4.17080481017438
H           -3.77891323838528        0.63049300728607       -3.27535931090508
O           -9.04071527303791       -2.47795503488502        0.92815279968310
H           -9.98788044991053       -2.71457439169325        0.96066635606030
H           -9.05108754649347       -1.67424139625750        0.37294315769198
O           -3.07834693768940        3.02563554167548        3.06752738327714
H           -2.97314719727716        2.47716998347999        3.86709837816832
H           -2.86937904003383        2.41044866665823        2.34685879169864
O           -1.72201271005192       -2.59101648873304       -1.23525824956711
H           -2.46132466984892       -1.97562765530421       -1.34440762313034
H           -2.16228397984638       -3.42654311486886       -1.00239258981391
O            1.45300220774574       -4.64598296357681        0.79140074879166
H            2.34842489564188       -4.97465625758497        0.61848755407056
H            1.39965743061108       -3.79356976719608        0.31347959407028
O            3.76624148012535       -2.26700873690254        1.69312451789403
H            3.52751076064125       -2.57799850233211        2.57543269554594
H            3.72946165349942       -3.04640776565435        1.11517073506686
O            2.27962650153465       -0.68845580915980       -2.63194397049360
H            2.09730942983034       -1.01306478148640       -3.53628853975051
H            1.41299890801153       -0.45907470871663       -2.27036076596807
O            6.22380618192244        4.14293923887502       -1.09589669212192
H            5.88141227779277        4.73351183572805       -0.40899758567118
H            7.10425587959038        3.87341088511588       -0.78272811661831
O            4.12943478945666       -4.61328533946177       -2.57436027034055
H            3.19861595733367       -4.41297244507225       -2.77189979684384
H            4.61904154464341       -4.06067728847933       -3.20231982963749
O            3.22657390945376        1.83636482351770        4.75756354581005
H            3.86514033473434        1.12476305137972        4.91495997521875
H            3.77411365585801        2.58474525763434        4.48258328806170
O           -1.27662198276595       -4.84379863074426        1.18807213149936
H           -0.33263049035341       -4.98180410676847        0.99668980924776
H           -1.75122948324066       -5.11163295038894        0.38780823797013
O           -8.65230799028087        2.14641857456791       -2.40920470676223
H           -8.21911646358654        3.00992055074061       -2.38528957924446
H           -8.99845543366559        2.06503323704514       -1.50402080111619
O            8.73261197816251        0.34947376239772       -0.82158929591065
H            8.71758984721147       -0.62727373776834       -0.94079733374368
H            7.80666166488267        0.55584044895097       -0.60517372062935
O           -5.05277555761672       -3.37275262219376       -1.97621842318170
H           -5.92115719409865       -3.68238096490630       -1.66969482308454
H           -4.67680369836392       -2.93733852982060       -1.18618833746439
O           10.06360422089614        1.46397061424168        1.45889088682594
H           10.28735016295419        0.85950647165505        2.20144252804103
H            9.56316354456434        0.89209748220316        0.85568410760608
O           -3.58940602914023        3.64162541087111       -2.41546174688081
H           -2.67091222580578        3.66284674039917       -2.10522907383562
H           -3.60272078904860        2.99085829979281       -3.13650256202404
O           -3.19355361468863       -2.99683940159392        5.24325759505437
H           -2.53375311925994       -2.28631557653734        5.24049237725586
H           -4.02437904422668       -2.54700392345716        5.03078610826181
O           -5.27570121165290       -5.17285276777994        0.42828220094977
H           -6.08263534694495       -4.88913640788084       -0.01957788156343
H           -5.19554722221039       -4.58552699400998        1.19332290122597
O           -0.11489637049946        1.83478813814179        0.54051032852486
H           -0.35861554660585        2.59597016928040        1.10180785540007
H           -0.86998059697824        1.23922878817468        0.60098256865643
O            1.59815254307505        4.65807366709715       -1.13501927142171
H            2.41246820935334        4.73387553121913       -1.65300115934334
H            1.85597452806064        4.70074909708237       -0.19758888136814
O           -0.54411393053879       -0.04291076315801       -1.57144198232130
H           -0.73055550495311        0.58282195073613       -2.29582966869833
H           -1.35607536215681       -0.09472386838468       -1.04326641139732
O            3.86404279697783        3.99393649048758       -2.66945164919439
H            4.25501299617370        3.88064888482455       -3.54104293026690
H            4.61858894325445        4.06379054210961       -2.06498261089796
O           -5.76614542903262       -1.73935324566484       -4.15220138619631
H           -5.49855949465499       -2.26608801683732       -3.37814435986344
H           -4.92161352007368       -1.52162657140598       -4.58568301016798
O            1.69454928029604       -3.34183772424105        3.20554244730212
H            1.62261454458192       -3.92331287695303        2.42600967852533
H            0.86859710229319       -3.48729187378677        3.68974523989833
O           -0.87032355951748       -1.86757698508624       -3.72380538810451
H           -0.76848363230325       -1.38165836518195       -2.88725672417921
H           -1.19880776087688       -2.73351510388784       -3.43703186411817
O           -6.33727762832012        0.83393756452487       -3.25675800866538
H           -6.32360508174743       -0.10645793242052       -3.51061953548330
H           -7.25415738524145        1.07504048454141       -3.04560015245345
O           -7.16173196111796        3.84521095592330       -0.78787537205820
H           -6.60593702882544        4.59908228672168       -0.55785922117535
H           -6.56091910035898        3.08101056318999       -0.75992246067677
O            8.77860669804517        3.19115724446544       -0.36000651994911
H            9.43293721726751        3.20213972561528        0.34771154179721
H            8.84851687979202        2.30547991654929       -0.73638485109942
O            6.23901086185171        2.62177550066950       -3.57156218493202
H            6.52041319832180        3.29179363272014       -2.93482933624960
H            5.61845064535911        2.06278265149704       -3.06827555800176
O           -9.53970814370061       -0.09678489984734       -0.33042843238012
H          -10.38181308401830        0.02497789906466        0.16014390634084
H           -8.95365932680163        0.59818628711792        0.01314681778691
O            8.19532996442059        0.60274798647767       -3.64476622346996
H            7.64318921790356        1.38972333571746       -3.79273628824499
H            8.69742368298499        0.77632120651765       -2.83786203465445
O            1.70990186438577        1.35130875028167       -4.56615537497541
H            1.77173364115097        1.44223582050693       -3.60036985693776
H            0.77746053359996        1.55356104240202       -4.72839201574715
O           10.25267668883268       -0.61576984946148        3.15752692574643
H           10.45915035537771       -1.27301396989759        2.47627153009178
H            9.30111836788811       -0.70471503388027        3.31267064306436
O            5.11049022104406       -2.27551702719722       -3.87717035939928
H            5.38615414047273       -1.81925359734970       -3.06176214166296
H            4.73834793291299       -1.56810332928901       -4.42322586591558
O           -7.78311708980818        2.88747816367275        3.57575687275075
H           -7.18873189772342        2.29535570812589        4.05941408305219
H           -7.20552910090557        3.29160109932845        2.91224761688998
O           -9.82970497150219        1.40015451602384        2.52298142182127
H           -9.30830063877752        2.09092096444263        2.97581105377482
H           -9.31353625137860        0.60402917164315        2.70349688411356
O           -5.57502763880016        1.15580661410370        4.19094038300273
H           -5.86229685400647        0.24617401366122        4.33808249690821
H           -5.43280161006274        1.20024100598727        3.23064873688632
O           -3.18633349227813       -1.15920017494159       -5.19579110653578
H           -2.41496475908676       -1.34587069140437       -4.63112322703263
H           -3.30974957771129       -0.20315166332542       -5.12148332198388
O           -8.22104550152270       -1.84743468768184       -2.84665216360492
H           -7.63817949935112       -1.86271992608202       -3.61740202843295
H           -9.00116934170803       -1.31825801499222       -3.09076988856927
O           -2.86856583616253        1.14371160065777        5.12419547770416
H           -3.83519789788634        1.13407856127333        5.02128739909655
H           -2.56750626823940        0.28683287531631        4.79666909238653
O            7.96898221843421       -2.30983418694972       -3.90850585213560
H            7.02215430930465       -2.44604806147194       -4.07203975597664
H            8.14640477755989       -1.39666074324423       -4.16569328466483
O            4.38096148267098        0.36093078718130       -4.85975973577833
H            5.00127338713546        1.09401135025506       -4.90289837395827
H            3.50057477341176        0.73719271482764       -5.00206178382894
O            1.47876444733601       -1.46807926659650       -5.12842287776440
H            1.60506984535106       -0.53365589488596       -5.34188003560113
H            0.54110193066729       -1.55142908479592       -4.88559101524356
O          -10.28694911577720        0.02097918124744       -2.99594371102894
H           -9.80294326950309        0.81510724782880       -3.26119571380830
H          -10.07009861915689       -0.06510533503229       -2.04893440096673
O           10.59057142348957       -2.11503607018490        0.75250661433956
H           10.00610182666413       -2.30043859494327        0.00070660766667
H           11.23009065017000       -1.47365202396157        0.39880861062269
O            6.96429004916714       -4.29555330583797        0.18986560004509
H            7.58332667564592       -4.91351164165934       -0.20341306551218
H            7.42643676331554       -3.93822072136858        0.97880951483349
O            8.42162186626606       -3.18564546799311        2.21934945591203
H            8.01183796724566       -2.31896929695642        2.31747489056147
H            9.30738325342564       -3.00883534988173        1.87251656218674
O           11.67044584718971        0.16380236937011       -0.46129993502505
H           10.84792980205125        0.29422883812778       -0.94479507672236
H           11.62817495438932        0.79626433993245        0.26731068281055
O           -3.13553843900009       -3.76445119673122       -4.01102576446746
H           -3.31381104230776       -3.20853683923381       -4.77806031370824
H           -3.77011392406925       -3.47619299455100       -3.33770580445537
O           -9.69513318849465        2.83356901677169        0.07939626488518
H           -8.86631505698010        3.33604302243764        0.05611608243837
H           -9.68161867030567        2.36278360233798        0.93031590715596
O           -4.61779245601535        4.94055498457380       -0.17334880528804
H           -3.79541560183397        5.37354009397423        0.12007812439898
H           -4.41949785587890        4.66963506063006       -1.08205735571626
O            3.50251276576701       -2.26178695534288        5.01021080156251
H            2.77335656461516       -1.63199023635598        5.13937750971524
H            3.07649021168155       -3.00925565234254        4.57056271247896
O           -7.63961212111627       -3.96313021394022       -1.04809513543695
H           -7.96741994415641       -3.45318830239815       -1.80436386880217
H           -8.13444202654857       -3.59908947445385       -0.29690443126561
O           -0.79359278883342       -4.90868317549641       -3.01274019604512
H           -1.21257675971979       -5.07811989281616       -2.16167466974699
H           -1.53591589324079       -4.73034668980209       -3.60945310365380
O           -1.93265999307156        5.50060316285766        0.21537633460744
H           -1.52195313105343        5.04011111344810        0.95644693220032
H           -1.63115283581527        5.01966975916680       -0.56746738113032
O          -11.89797600941486        0.26218590751184        1.01043530162910
H          -12.17190605500547        0.85985149167706        0.28947157895108
H          -11.49754764075646        0.82425396525720        1.68978470434921
O          -11.94622604467545        1.76216827879090       -1.29542571428904
H          -11.61430143650039        1.24467851732412       -2.04103402615266
H          -11.21885321891734        2.34070133112576       -1.02400315464999
O          -11.74151900783335       -2.47899389651785        0.50447917654505
H          -11.97201377656959       -1.61498282968316        0.88235608620863
H          -11.85986082899692       -2.37456096945958       -0.44153804742117
O           -0.90457874421897       -4.04511601153877        3.92375647799269
H           -1.63787429789817       -4.12385079886564        4.54715361313526
H           -1.12615436543184       -4.57924096367496        3.15152196571063
