306
 energy: -589.306316785772 gnorm: 0.005780787586 xtb: 6.6.1 (8d0f1dd)
N            3.80666440019999       -0.00000000010006       -0.00000000029852
F           -3.73282176609990        0.00000000000004        0.00000000019998
H            4.14094368197860       -0.95491460865374       -0.09202263960084
H            4.12520475900974        0.57555646078146       -0.77358247750313
H            4.09207287872933        0.39578031355257        0.88846810780235
H            2.70446531330000       -0.00000000000000        0.00000000019995
O            1.56859190948943        1.25167485197460       -1.34860906550435
H            1.60466906914004        2.20297084578510       -1.13738223055764
H            0.73211842714319        0.95708095753281       -0.95497163127246
O            4.26266197595295       -2.50671568178071       -1.10919392263098
H            3.59811161136136       -2.15345373130879       -1.72522056601514
H            4.45737098534902       -3.38694505195928       -1.47463341830986
O            3.92439323639663        2.81158935174164       -0.04385047730681
H            3.20579763255399        2.56244593671425        0.55524290465039
H            4.18517000691897        3.70800058899676        0.24146817225364
O            4.66745895165416        5.18368701535243        1.15965626710152
H            4.86462246827822        4.63489453926842        1.93946963203846
H            3.74195520733704        5.43701898801322        1.28669380704498
O            5.68460222974893       -0.17540210746237        5.09195481300002
H            5.13988197387859       -0.98043521367048        5.08993960204856
H            6.52544554486456       -0.43807778690378        4.69429814119356
O           -1.99554143414165        0.40395460478509        1.88050447378277
H           -1.73750918006645       -0.49116534503838        2.15071975163026
H           -2.57008154739093        0.24947906811330        1.10117043360142
O            4.31678041832624        1.41991847533032       -2.51379648075906
H            3.80784304712346        2.18248221328451       -2.19868744428201
H            3.66888967379896        0.73022932994576       -2.76849241525436
O           -1.13476560227002       -2.21169506180649        1.38542350213362
H           -1.60843226815718       -2.16965705614380        0.53573540942990
H           -1.13886375238835       -3.16113665776999        1.58582350949362
O           -6.30935221061800       -1.11241734133389       -0.80732361935008
H           -7.04707913952092       -1.26355388498962       -1.41665541708399
H           -6.52158093441408       -0.29549592423949       -0.32168635576387
O            4.96875738270040        3.10077000975781        2.98651227276179
H            4.54160102943289        2.40610260439127        2.46864222652936
H            5.90750541191236        2.85699589015717        3.00729536659783
O            0.99149619319387       -1.82341873178657       -0.89792734485774
H            0.03646677279849       -1.66133451998564       -0.91387588980197
H            1.15950438074589       -2.43135796781037       -1.64476120961841
O            2.39253059472778        1.84970986887778        2.06864982648060
H            2.56067628451558        1.51940082385352        2.96663041561558
H            1.56153968685861        1.43107741306469        1.78818098392799
O            6.34589637084808        1.41749809547478        0.08432965897624
H            6.04597112558082        1.07622998702060        0.93894549116187
H            5.75156278603821        2.15061464717471       -0.14442094091230
O            4.95798032325819        0.30637535383158        2.49591105696996
H            5.16869432557725        0.40257046644843        3.44402491259447
H            4.79663195100414       -0.64408366611222        2.39953132331719
O            7.59299227382918       -0.49292444098357        2.89446553049566
H            7.13542514438889       -0.79596510287946        2.08878534188027
H            7.57432156123523        0.47521068754196        2.81260068289250
O            1.95525138728252        4.60205731006276        1.56573904274156
H            1.08931806414792        4.86324137572799        1.90949225208997
H            2.08024430781436        3.69846273351763        1.90279248578281
O           -3.80693330366334       -3.97325119420352        2.68552322060220
H           -3.56797881901942       -3.66015773365709        3.57342578503866
H           -3.00145384777011       -4.33239322081624        2.29421130100331
O            1.36964196552663       -0.50702692340215        4.44702646678871
H            1.49659161187943        0.43609261512315        4.62037146025699
H            1.30774960482748       -0.57445682231284        3.47540217212996
O           -3.78512857843776       -0.85498840737579       -2.36513671927786
H           -3.87294595392140       -0.48980761288046       -1.44964072987835
H           -4.65367424112462       -1.25207178164499       -2.51388398487272
O           -5.76062179554954        3.20907325394538        1.81724765371325
H           -5.54347383767924        3.82624748458942        1.10325063792297
H           -4.90630404417221        3.03258826340410        2.24666877409283
O           -4.76425903269368        0.48671998388871        2.31702276279182
H           -4.73518402057673        0.37967977420295        1.34406693917600
H           -3.84075575511284        0.67922506981845        2.53450771858977
O           -2.87700705305737        2.51981437800431        0.08480539354844
H           -3.52156549564918        3.24366706672931        0.02491631861253
H           -3.40479610183155        1.71427972745378       -0.07749260632426
O           -5.33850770560270        2.03783823519895       -1.06843311494254
H           -4.82422123791174        2.51854741236126       -1.73448629249957
H           -5.53758026287899        1.17875666950150       -1.46809218001008
O           -1.10002082020964        1.49725850610247       -3.77918119323726
H           -1.98316507636229        1.52352564582346       -4.17244249480029
H           -1.01609699366696        2.30728940495488       -3.24552466873178
O            6.31570655402460       -1.39812593824618        0.56987724739494
H            5.84088571775398       -2.23662534702550        0.49426770650096
H            6.39170765240773       -1.09125307559360       -0.35166712564615
O            1.67905636124847       -3.54109710472504       -2.96350239166567
H            0.86745131763081       -4.08967453379021       -3.00258845612478
H            1.72179044418842       -3.08077562679705       -3.81263077205362
O            1.23518255063002       -0.63122478002689        1.65201879784320
H            1.91885104836264       -1.32198416975709        1.62732562152301
H            0.42207002590682       -1.10026191857902        1.40017039019196
O           -7.20613078393273        1.01683924566392        0.81952374394769
H           -6.62965597286151        1.78249619219045        1.00302032309887
H           -7.30280555993693        0.56680293117665        1.67421894182872
O           -0.62373680600418        4.15846697173043        2.58628179480328
H           -1.58033144367072        4.08260256121677        2.76014431385834
H           -0.26363024179197        3.43212765237846        3.12670162103993
O            3.95177167223179       -4.90456686420033        0.31223188876167
H            4.87854923495310       -4.70696105449245        0.51689756458247
H            3.96769943286718       -5.11544831424165       -0.63213390100633
O            7.64108736001051        2.34593150989612        2.41905364608080
H            8.58751995900114        2.26631558069178        2.60089496984796
H            7.62000997257702        2.50655554244017        1.46203184149278
O           -0.92407610112775        3.35084589117145       -1.74606646347593
H           -0.01621515198990        3.70205132441749       -1.67306191737296
H           -1.00166683788579        2.76120356993550       -0.97474206286885
O           -1.29773957136052       -1.24344398744831        4.14051719936566
H           -0.41486534426617       -0.97297637687284        4.45593994338970
H           -1.12620380041357       -2.01127886314753        3.57598075073276
O            6.27298258591013       -0.55914179455505       -2.10562395816458
H            5.74900857178361        0.25285918257788       -2.13802750043257
H            6.98735717805276       -0.41853917331491       -2.75285977390259
O            8.47259816454912       -2.40564408084785       -1.28276376434840
H            7.68985853340656       -2.79410237616345       -0.86777712315027
H            8.31197008330178       -2.46100818012291       -2.24885241203391
O           -3.83507117740688       -2.56798671492305        0.29961877246071
H           -4.11017309070592       -2.87792318851935        1.17582771132846
H           -3.95669034662820       -1.59877049316595        0.28775585382593
O           -5.41907668240416       -1.72698288322992        3.83151992498455
H           -5.05520639734540       -1.03415285698086        3.24953982474905
H           -5.56968080953979       -2.46381255068764        3.21720027455309
O           -6.39120716838840       -2.79349427716627        1.45497835836286
H           -7.31492213933976       -3.07191737016697        1.42991418271758
H           -6.27952179254759       -2.26505959032399        0.64290050888616
O           -7.95389761692731       -0.76785840555967        2.89227426759927
H           -7.14964537719465       -1.15358351718642        3.27619255525795
H           -8.32591208850354       -1.46468215326853        2.33014217660429
O           -2.99238715032633       -5.15901523005025       -1.02543688684139
H           -3.33043075416142       -5.23485087257919       -1.92364689800926
H           -3.81170441750093       -5.12175749193623       -0.48271092975056
O           -0.24748205340884        1.66370567745871        3.73027005978476
H           -0.92720437546156        1.56831331141620        4.41079336006106
H           -0.60639383390999        1.16292353718239        2.98243402541865
O           -3.86465898281341        1.26871496381553       -4.05914375328880
H           -4.83032614495490        1.29545357369953       -4.16090723535127
H           -3.77377318611040        0.56785031960432       -3.37431303153633
O           -9.09243918034483       -2.55978391547039        0.90469476695467
H          -10.04891121789012       -2.74060118336821        0.97819594726759
H           -9.08125693580389       -1.75239123713227        0.35271917227078
O           -3.09430468878490        3.01505443191088        2.78989519114469
H           -2.94247398232364        2.33739669790137        3.47313744091329
H           -2.84150211252949        2.59593738129612        1.94772980702362
O           -1.75044871813575       -2.66016591466628       -1.34250644053817
H           -2.44276544990101       -2.03117294219583       -1.60537655214184
H           -2.26047816820965       -3.44523094460055       -1.06822541518104
O            1.20444369305987       -4.13153584451848        0.67545099833065
H            2.09009965505899       -4.48157503826022        0.49365659086152
H            1.14085458430318       -3.29447037954131        0.17878149929608
O            3.60911393591171       -2.19695371020357        1.61478729365498
H            3.47073628035164       -2.48241264355423        2.53164388970707
H            3.63012482353786       -2.99509010701577        1.06576459652041
O            2.81352125055663       -0.82064592796610       -2.74900714027874
H            2.47550643543726       -1.10627251424076       -3.62158682734399
H            2.02185115764574       -0.66103145473147       -2.21436664667407
O            6.39243953241973        4.20967211378412       -0.89412538422831
H            6.01191742505570        4.80981078120753       -0.23697704969844
H            7.27415582258409        3.97694767532862       -0.56315307885439
O            4.17825330265278       -4.77489690889124       -2.63211828133505
H            3.24845828150904       -4.53628123801103       -2.79247984629187
H            4.65698071014858       -4.24788157864409       -3.28862935810224
O            3.33806272593862        1.56748898070109        4.74718055555809
H            4.00322717235277        0.97230417194094        5.11558901513188
H            3.82321997347568        2.37301029380239        4.52399285241403
O           -1.37338212526180       -5.04807388803775        1.30583841940600
H           -0.44961155411152       -4.97238413409496        1.01537674320224
H           -1.87746861023759       -5.26713412041576        0.50762133380509
O           -8.57832722193212        2.10780359704603       -2.42428738243442
H           -8.23664016973228        3.01149478478048       -2.41245373746063
H           -8.88023617125349        1.98593045661396       -1.50671382965260
O            8.71581161505870        0.33879773013118       -0.93451577071866
H            8.67886515400508       -0.63532714950828       -1.02527478386686
H            7.80259632268325        0.57113119611326       -0.69174757910366
O           -5.06953571112836       -3.47521455307410       -1.99552417893694
H           -5.94927820952222       -3.76471971978623       -1.70239385107892
H           -4.68861429509729       -3.08069652989351       -1.18373079189757
O           10.01337072068899        1.19157192962827        1.57128286836758
H           10.32941682162111        0.61309698335359        2.29978098875969
H            9.50638287442439        0.58484443500973        1.01156023008520
O           -3.61687850387544        3.67035945175687       -2.62968137745696
H           -2.73182957832487        3.59234915118868       -2.24278081972724
H           -3.65137527907829        2.99285132537873       -3.32355121492446
O           -3.27641616385682       -2.89761102032757        5.25881860246913
H           -2.62103331401549       -2.19781777563256        5.11347435863320
H           -4.13292274546886       -2.48136569738909        5.07377912760904
O           -5.33818224725108       -5.21900421049440        0.41950864102035
H           -6.13872523591622       -4.89890047851319       -0.01489736171479
H           -5.24113068431658       -4.66180734256237        1.20484431880685
O           -0.10293864069553        2.13935305135272        0.67727411686919
H           -0.37403804957422        2.89958878104777        1.21643378543256
H           -0.80930978611926        1.48570805204512        0.79624944784430
O            1.64913195985818        4.06574174614438       -1.19010275057529
H            2.46913702749555        4.24810272464994       -1.67454110546271
H            1.80408942183180        4.34170042335067       -0.27038359102754
O           -1.20462013971812        0.20134703951237       -1.25648501122493
H           -1.32986235961441        0.72241577212243       -2.06623101119883
H           -2.07438811968984        0.15473641911267       -0.82978374336470
O            4.09735036702317        4.24376735763692       -2.63560537499182
H            4.52203195278709        4.18521451778468       -3.49647079270774
H            4.82427344466488        4.25655099879699       -1.99710026780859
O           -5.83039523900918       -2.00612683000899       -4.29642822485758
H           -5.59491658530574       -2.64021197111056       -3.60093775606253
H           -4.99030311113460       -1.78245723230650       -4.72919365390369
O            1.52551662925839       -3.14345763315045        3.27147483960798
H            1.36869954575254       -3.54122149704020        2.39807615097222
H            0.74178951894382       -3.37384176572748        3.78818437323738
O           -0.84090751143319       -1.59085260242140       -3.64215704806337
H           -0.91828579784459       -0.98362384970133       -2.89199432040798
H           -1.09285072806788       -2.45085617219801       -3.26971628205690
O           -6.35733982984040        0.61315502596988       -3.23571374634280
H           -6.51754619205161       -0.31543263979444       -3.45376594399801
H           -7.20866581792790        1.00537396697067       -2.97388803116707
O           -7.27873345248286        4.01866136034993       -0.83987975477413
H           -6.70722993335235        4.75873844902520       -0.60658454751422
H           -6.68765012397687        3.24427584709773       -0.82142941116576
O            8.87188411580842        3.10548924353078       -0.09638304215134
H            9.59625733955880        2.98442293027505        0.52921377015410
H            8.82990378507670        2.26390480336616       -0.56841251430973
O            6.51480563321343        2.84949953809115       -3.47033821908914
H            6.75274389079296        3.38333382963748       -2.70133181990844
H            5.75059702478652        2.32812913720203       -3.17763032701348
O           -9.43091820961178       -0.15587097291022       -0.35298326801071
H          -10.24612177530734        0.06186214558212        0.14766272813091
H           -8.75675370732938        0.45387094953145       -0.00350293298023
O            8.18061044415905        0.58438702903744       -3.73896952173355
H            7.70788842758687        1.42750183343602       -3.84898197064203
H            8.70635112418214        0.69496257099261       -2.93546420898552
O            1.61907547487884        1.20266173350347       -4.31070121807092
H            1.64297025618014        1.25973773878309       -3.34308888337816
H            0.67578012918238        1.29802175816838       -4.51162205689204
O           10.40925187588924       -0.78095431194806        3.36755359001611
H           10.61685229619530       -1.39014626151361        2.64662772395041
H            9.44714724597015       -0.82819591461854        3.45676565397989
O            5.04864056164169       -2.35474700561315       -3.91933729181662
H            5.17756308762791       -1.88533242458067       -3.07909920518744
H            4.62960728136771       -1.69119859405170       -4.48942005584004
O           -7.73528789091131        2.84111763622758        3.84267026756498
H           -7.21189537835882        2.30307978336511        4.45055022299073
H           -7.11818793019707        3.11739800071733        3.14746312304983
O           -9.72581276323261        1.43126100411227        2.57777059873851
H           -9.21750710193941        2.07584679160954        3.10593541827151
H           -9.25433192961520        0.60295880717830        2.74736603679072
O           -5.72205223335130        0.97636087877671        4.85372855229641
H           -6.02709359222917        0.06947511126787        4.96869354874691
H           -5.59145211907135        1.06902055261612        3.89707851272259
O           -3.21458748353450       -1.24362651851134       -5.22095311578681
H           -2.44138010447671       -1.29457244384374       -4.63195434180985
H           -3.45532559303544       -0.30742734149643       -5.21193475632650
O           -8.22225985656579       -1.83232588368402       -2.87714370004559
H           -7.75939989059380       -1.95824017418585       -3.71456257696716
H           -9.01774805668429       -1.30293136011773       -3.06834547579493
O           -2.87464602062801        1.03184923493205        4.74606204692833
H           -3.78966832851474        0.98304808579964        5.06870740845950
H           -2.61656542402181        0.13915505680873        4.47709905634037
O            7.87843682954577       -2.30052782268621       -3.96702304202418
H            6.92412950957607       -2.41393837025851       -4.11558330692251
H            8.08953141287585       -1.41499443669268       -4.28727600871707
O            4.20996080383982        0.16675567193955       -5.10768517641592
H            4.86128335234187        0.77382592481050       -4.74572106067014
H            3.35412564232029        0.59686592836932       -4.96375375952737
O            1.54108550567512       -1.58901132195435       -5.05732246211998
H            1.76361739008555       -0.76107209429930       -5.49528800364395
H            0.64159915298744       -1.46500363864405       -4.70509665866362
O          -10.29451269442135        0.03170774592414       -2.97803254207243
H           -9.78266159320344        0.80652098631839       -3.24937128517375
H          -10.06803204809013       -0.06258920273527       -2.03407857149652
O           10.35430453384961       -1.77113776527054        0.71542015425621
H            9.83592366023649       -2.09460125369863       -0.03789014522959
H           11.03367370112427       -1.20311631119252        0.31032180308217
O            6.74699753613492       -4.18747186816070        0.28371023254312
H            7.23573717811632       -4.90432650948612       -0.12548189454829
H            7.29758359588731       -3.90179389822904        1.04348908464304
O            8.45634759360792       -3.25203259376876        2.23437660942304
H            8.09465992873756       -2.46352211188408        2.65424248293315
H            9.24945112171011       -2.94159299258295        1.77526270235316
O           11.60379733449196        0.34340452462013       -0.58779762682750
H           10.76888718476372        0.45958266774552       -1.05579773534435
H           11.51991980449700        0.90559424693699        0.19328472381489
O           -3.01178511487502       -3.77163974187848       -3.90058265193938
H           -3.19528467633995       -3.17230142061519       -4.63376172597715
H           -3.67228139670731       -3.56456462880153       -3.22248829382328
O           -9.55678366649518        2.67990772015449        0.09111928771361
H           -8.83191199140503        3.32312911259859        0.05955219909151
H           -9.51394708369196        2.27088519340977        0.97487342943700
O           -4.60878727779479        4.86165091718491       -0.25531697383426
H           -3.79137972368955        5.29978063910092        0.03608032697456
H           -4.44598474557625        4.65235897503132       -1.18660848086393
O            3.71899256783133       -2.00927490065882        4.44704372334504
H            2.93999429809517       -1.41852145214716        4.48770559040869
H            3.31726506200840       -2.88051604030194        4.53734961389213
O           -7.69296787771550       -3.98997170146324       -1.09364921742479
H           -7.99339586988269       -3.40678642769263       -1.80783525648243
H           -8.21165709715524       -3.69653643459813       -0.32786003892325
O           -0.68166912126016       -4.90203693721772       -2.90329736729414
H           -1.04730427701003       -4.91110477197631       -2.01237170979038
H           -1.42572190645386       -4.60936241517441       -3.45510830953460
O           -1.88281757823803        5.32663839502625        0.13245102795840
H           -1.41609395221853        5.04477844352800        0.92714643018117
H           -1.57591345458887        4.73538652447319       -0.57055697035784
O          -11.77865496466949        0.39261077091085        0.96754584335218
H          -12.04524043436320        0.99190250580736        0.24422572872005
H          -11.37893920382449        0.95011715399383        1.65104025000349
O          -11.88400479031014        1.88983401227522       -1.33957119537326
H          -11.57730062595975        1.32760984143384       -2.06344727606089
H          -11.10906411743142        2.38991688927215       -1.04371888549061
O          -11.81182904709090       -2.37329870808552        0.60559444020262
H          -11.95018618145604       -1.47407801191106        0.94566128523436
H          -11.98930295372632       -2.30924137977771       -0.33464842844221
O           -1.04207912416673       -4.10201644576246        3.94615630644239
H           -1.75168315398771       -4.11193360566362        4.60026174062228
H           -1.22812991840387       -4.79743953006461        3.30376183079370
