306
 energy: -589.324506087902 gnorm: 0.008111976541 xtb: 6.6.1 (8d0f1dd)
N            1.50666440020000       -0.00000000010000       -0.00000000030001
F           -1.43282176610000        0.00000000000000        0.00000000020000
H            1.83327913532083       -0.96202592380714        0.00876511578218
H            1.82163438909505        0.47005506376501       -0.84178135574419
H            1.83164406130536        0.49486087403876        0.82970701568943
H            0.40446531330000        0.00000000000000        0.00000000020000
O            1.59852733545358        2.21539477155990       -1.97636991006785
H            2.28007759166125        2.85031001084730       -2.26147078952590
H            1.28695323756381        2.57554052690530       -1.13291383287119
O            3.81594857899275       -1.56632606061218       -0.60258353163323
H            3.38736895629068       -1.41924991208795       -1.45987782081729
H            3.94216079596251       -2.53013483648129       -0.53272182309801
O            3.44353062069238        2.88885454891597       -0.06174547476504
H            3.10171223013197        2.39862936037091        0.70006577862775
H            3.91676276242736        3.65671687039970        0.30672895813488
O            4.75048252058642        5.06189558607993        1.06549589839845
H            4.96748756909570        4.44674944535406        1.78701619297283
H            3.87412916131137        5.40118580218772        1.29683757849641
O            4.80491934868729       -0.32650414092819        3.86643678988911
H            4.38915399782962       -1.08777355738911        4.31643140506601
H            5.76692316601042       -0.45769846789651        3.90212000229212
O           -2.07659496959707        0.64117352637674        2.32801190942831
H           -1.85571993428173       -0.15976134356298        2.82992739075454
H           -1.80694810321470        0.43287050689177        1.39950207049189
O            4.33778741626318        1.13659195771102       -1.97625311342479
H            3.88954523812410        1.71114742332295       -1.32951392028599
H            3.63840981544436        0.65476435242469       -2.44833185244854
O           -0.73095739463006       -2.08767364102731        1.62102048694215
H           -1.11247433075150       -1.45940718837021        0.98192257332314
H           -0.89190268441986       -2.96922365353075        1.25218068451167
O           -6.11280395980510       -0.58705088975474       -0.71793365938796
H           -6.79865960129464       -0.88064104454389       -1.34404746560807
H           -6.50442715546422        0.14880714509946       -0.21501641901326
O            4.97265955677229        2.83343049945165        2.72292105087273
H            4.72729248718215        2.07655006152452        2.17285132986543
H            5.92789805630045        2.73924367484306        2.86407816788067
O            1.16850156067874       -2.66572504335440       -0.93087927343498
H            0.19767045610318       -2.66346028248238       -1.02356010766578
H            1.49302062837554       -2.84828504316147       -1.83383743722937
O            1.93013691391011        2.02619601235082        2.22240281872306
H            2.54014192521547        1.79020879176369        2.94404401454209
H            1.05805110209241        1.98098541195916        2.65684249485394
O            6.31649440216140        1.49241527006973        0.08909010135818
H            5.58614007662792        0.97940563833019        0.48660106595882
H            5.88948495362074        2.19598249383524       -0.42299809763401
O            4.09681696080054        0.41388805763057        1.29683947833089
H            4.27349369224337       -0.02403066098093        2.15171433231162
H            4.01383831465039       -0.32307026098011        0.66409455935572
O            7.50381349074998       -0.25042799691058        3.20302499285643
H            7.15930348900068       -0.52342543310544        2.33123318817384
H            7.58555804250067        0.71687955203853        3.11975643398158
O            2.00605771682287        4.80030662159943        1.58833489856592
H            1.13239958519637        5.10884282545896        1.85660919550114
H            2.01200818315092        3.85098668657001        1.80315556813550
O           -3.42792651876985       -3.61137510288757        2.32848703133824
H           -3.31071771810673       -3.45595209365775        3.28463453013392
H           -2.64940131890273       -4.09538975596314        2.02888862557382
O            1.19407904430252       -0.07456696195019        4.96081588790472
H            1.80079684511805        0.65555034643867        5.15737980472019
H            1.42403885565442       -0.32545574374673        4.04199073360934
O           -3.42246158222671        0.36404359144427       -1.54004440674920
H           -2.74847147423773        0.05604845961489       -0.89850607131521
H           -4.25528984009947       -0.05307323733676       -1.27378240164130
O           -5.68983467019784        3.51502107813767        1.78402678327134
H           -5.50993879964150        4.06976109302500        1.00784647486586
H           -4.85388760194571        3.49258472370210        2.28037609537742
O           -4.69405010928644        0.76154994502818        1.58085173210814
H           -4.90983382580795        1.35974628888714        0.84300447838817
H           -3.75796779404670        0.94791832657083        1.78735568653040
O           -2.81768040022730        2.54645956037006        0.26287340953385
H           -2.96045259404914        3.47578452090974        0.03547386346621
H           -3.11850829162467        2.01308266481288       -0.48996376210528
O           -5.42573763997701        2.27139503572354       -0.82463484848507
H           -4.79152472517528        2.90655217824927       -1.18650394899751
H           -5.62306419417568        1.68827908686264       -1.58378696539361
O           -0.72062929200135        2.44422568483513       -4.06943655939001
H           -1.65962868979905        2.31860588871810       -4.26247897292760
H           -0.66901791784270        3.10727621286383       -3.35901640107050
O            6.39268844051422       -1.35434433754811        0.99329831169107
H            5.61567422275411       -1.84079027894572        1.30779625928127
H            6.30041208512728       -1.30345792801253        0.02761547640446
O            1.67472947460597       -3.45627591435727       -3.53535211631637
H            0.85896473321797       -3.98519139555385       -3.55668355059878
H            1.63943782223158       -2.87963445879019       -4.31294287518416
O            1.74051286842081       -1.06510389585535        2.47188195672538
H            2.52726322323633       -1.63760480574754        2.46801113264537
H            0.99093978358426       -1.66079900359652        2.30342048313080
O           -7.37987695942576        1.35819714478000        0.94114168740992
H           -6.84960651904118        2.15002142150813        1.13184143102824
H           -7.36574012020614        0.83183659255487        1.75561825095697
O           -0.68369940367550        4.38413624821905        2.43335562277024
H           -1.61440294672069        4.19080304039387        2.66745100499342
H           -0.21582050344695        3.87767857287994        3.11432660580597
O            4.22983410277924       -4.29259618288819       -0.22499313101361
H            5.18954522315962       -4.31838508199832       -0.06210951562839
H            4.15427765372254       -4.51789215907486       -1.18507637665041
O            7.68050306453101        2.38214647164089        2.32556434146170
H            8.64398004567363        2.41564086560405        2.21078092948272
H            7.34498389078457        2.18694637525898        1.43085505409841
O           -0.80319343171790        4.09371496210676       -1.81524075913689
H            0.04519707666666        4.58780539647979       -1.79130780310907
H           -0.65177760625979        3.41773950885827       -1.12574287887589
O           -1.32499419916824       -1.20762287795830        4.28326161211583
H           -0.51526538376906       -0.89256145301166        4.71345668780717
H           -1.03584144199273       -1.89277272394351        3.65677434062782
O            6.28759592304993       -0.81969851085745       -1.75287811586846
H            5.59852181382124       -0.14194708087590       -1.63880612705157
H            6.88337188466538       -0.45797526088432       -2.43314223251498
O            8.66292730911425       -2.25877054453353       -1.26708745104900
H            7.85109799704560       -2.60519699424095       -0.86336619525509
H            8.50834871175543       -2.35875464557616       -2.23085845820136
O           -3.49126050382610       -1.55441838905900        0.54430810411186
H           -3.50083580081761       -2.22808237755709        1.25192889222237
H           -4.02767359761870       -0.81062530736832        0.86373265725600
O           -5.02812474539423       -1.42214781065845        3.48953505404925
H           -4.63585329763290       -0.70200080557165        2.98000573124338
H           -5.18811901436814       -2.11254094299391        2.82018674931392
O           -6.02081593654028       -2.59113754151653        1.22029479775455
H           -6.93334625215785       -2.91029040360532        1.21217374547187
H           -6.00110396366605       -1.90508873970648        0.52708783412623
O           -7.75410250510777       -0.73421762658282        2.79875426659072
H           -6.89852581933244       -1.11835579228502        3.04427395090451
H           -8.18031338056891       -1.40798787595231        2.24462229430281
O           -2.77570680504017       -5.19978753825604       -1.11574843814790
H           -3.10247591707419       -5.42105815003166       -1.99322755450737
H           -3.59154736049720       -5.15625652009079       -0.56222140340061
O           -0.29400556745838        2.10212361113136        3.85639341463112
H           -0.10078019229302        1.53905720476792        4.61615404386889
H           -1.03125057157578        1.65990935377990        3.39661770741248
O           -3.40713609895135        1.52612379313586       -4.00522286205037
H           -4.37610245787384        1.52921656204636       -4.08019500354689
H           -3.26841073296706        1.01045151707515       -3.18584563640340
O           -8.75753231925420       -2.61504392001538        0.85152983008395
H           -9.69226922825214       -2.89236606566424        0.88105672037529
H           -8.81246540964127       -1.81136339943914        0.29690708553827
O           -3.11957472772029        3.22968657989379        2.97095149474382
H           -3.01650655763763        2.64391210505811        3.74519044476682
H           -2.88856158237079        2.66506721629716        2.21748326931432
O           -1.58114487701345       -2.63986136581150       -1.23482735644152
H           -2.01952113140992       -1.89190645892009       -0.80167575303145
H           -2.19152584407853       -3.39135953305479       -1.14482697434166
O            1.67331027076044       -4.76967835279162        0.74747135302902
H            2.53474637162592       -5.10846768302600        0.46566785031892
H            1.54566454963572       -3.98371304412034        0.17599169660426
O            4.07415810292158       -2.63835260345725        2.09430687961736
H            3.99414591447914       -3.13661517743884        2.91380157770756
H            3.85301104881787       -3.25830542223521        1.38404998089135
O            2.32262406260758       -0.67566847468630       -2.78319429280307
H            2.49763246926798       -1.11479593863183       -3.62754822170452
H            1.35886904359177       -0.54219840773448       -2.76951073486157
O            6.07641128654458        4.01095180483747       -1.20380531430709
H            5.70914037152173        4.59385882981317       -0.52062037995219
H            7.01054884706872        3.90058032613638       -0.94975800427273
O            4.09218008055787       -4.71684966511862       -2.87004615549626
H            3.18996523350759       -4.48769041356628       -3.14558640973274
H            4.62183016334272       -4.01536379086792       -3.28038472461611
O            3.25976601126205        1.79254424200610        4.65747788745462
H            3.89710710874490        1.07275972779823        4.48794252070157
H            3.74685334733090        2.58864684723039        4.41156725187022
O           -1.08920253978566       -4.90237934117383        1.12911569595546
H           -0.14852103864280       -5.08507280305277        0.96816167949353
H           -1.56196903912540       -5.21226130925823        0.34178502429495
O           -8.49982692599781        2.04909512511730       -2.40370682536626
H           -8.31318065943785        2.99740259955165       -2.40228045255013
H           -8.82029330185092        1.90055751601474       -1.49825138487238
O            8.72944362398495        0.42131509741288       -0.84811153232670
H            8.74785231423578       -0.55442428060846       -0.98521207435077
H            7.81912293715879        0.57630084179623       -0.53701628028986
O           -4.56546076624838       -2.91959855172002       -1.58794855493694
H           -5.38813039256907       -3.34173933243501       -1.29166714909791
H           -4.27601839055945       -2.37537719598858       -0.83110531638710
O           10.14657342547717        1.62948518115669        1.30552288504884
H           10.34881708898406        1.01125208427576        2.04205701016564
H            9.63937686136206        1.07651390662886        0.68904770256339
O           -3.54314940219007        3.77710367202049       -2.32514249000813
H           -2.61318664106857        4.02747335811082       -2.21617740437946
H           -3.54369939319480        3.10080342910383       -3.02398214659374
O           -3.28140340146516       -3.03841409440146        5.04510754032546
H           -2.59885637180374       -2.34786784627543        5.04513849332823
H           -4.10253446864320       -2.55320654535334        4.88438402287821
O           -5.00851220633529       -5.13237402101826        0.40358929420328
H           -5.81689693135748       -4.89619504333823       -0.07085564059519
H           -4.89071068853685       -4.43412951384772        1.06555027677205
O           -0.08302987545863        2.50734073426880        0.33011580847033
H           -0.27657171052080        3.14688163343289        1.03749228499040
H           -0.84075690375427        1.89884538876495        0.33848015080764
O            1.60508843805231        5.14311159427652       -1.22903707411379
H            2.36283746892314        4.94155274192732       -1.79427539825650
H            1.87456105927815        4.91110735682104       -0.32511594391430
O           -0.34816919821442        0.15437414511339       -2.49177783484247
H           -0.41097116952496        1.01067873352100       -2.95610967487208
H           -0.85577617143255        0.23711990301100       -1.66606600013711
O            3.66371431583680        3.96223073414275       -2.82173095044357
H            4.05538334446703        3.64185477026416       -3.64223159661323
H            4.37951184799404        3.90882739260845       -2.17262984845157
O           -5.47730871380621       -1.52847357151528       -3.84407844883744
H           -5.08033201403500       -1.92693100862888       -3.05056198529692
H           -4.73892262551472       -1.40837434593554       -4.47567358546595
O            1.85947653321273       -3.77757929745687        3.35223685178631
H            1.81028308071219       -4.18941098476411        2.47150725461121
H            0.96747887692522       -3.87012364775926        3.71881013140447
O           -1.07867533954963       -2.03090690392647       -3.97694229312426
H           -0.95581912272855       -1.30520347159381       -3.33675780600614
H           -1.13694483767761       -2.82339273497845       -3.42305588940788
O           -5.99850859314346        1.09086839808228       -3.22803982500075
H           -5.91633671606940        0.12464763665614       -3.35261953252457
H           -6.94322016665132        1.27776859493770       -3.09891626199988
O           -7.52934590829472        4.10616208442926       -0.80863366371846
H           -7.01573004603761        4.90679783339962       -0.64870092092764
H           -6.87513452642471        3.38951282171898       -0.72335146440578
O            8.67785370984496        3.29028581985061       -0.46976516095184
H            9.29126531706118        3.32500229821092        0.27327033013429
H            8.77733842888042        2.39599995879421       -0.81853258224877
O            5.96018294982332        2.55839330366845       -3.65441263018477
H            6.30338206027491        3.27708578372481       -3.10803394708717
H            5.42247573439723        2.02888946818214       -3.03005996702342
O           -9.34347064915577       -0.19560410362733       -0.25059717150128
H          -10.18350864086029       -0.09680692615234        0.24989662287371
H           -8.76964409676528        0.50420883950245        0.10409818049967
O            7.90908563535538        0.55255326915034       -3.57317264841256
H            7.32881360120678        1.31103513205868       -3.75757026797874
H            8.44708186863966        0.80017099693993       -2.80918375992536
O            1.78967897389361        1.45331847941954       -4.69902533047824
H            1.76432631701271        1.39768197271356       -3.73283667426632
H            1.00369543968814        1.98106436449883       -4.90113565771251
O           10.30763270673287       -0.45920091837620        3.00444506045455
H           10.40867409025190       -1.17146788480900        2.35291503657400
H            9.38615828442198       -0.51693663719920        3.30044477969127
O            5.06520098706060       -2.24528802657923       -3.75062250564484
H            5.31743797304747       -1.84057630477272       -2.90218558962769
H            4.79933074045051       -1.49391347999527       -4.30314703022838
O           -7.84266392863229        3.13635049249450        3.56803365496170
H           -7.23533260897498        2.58931722373561        4.08674096532251
H           -7.26767030890873        3.54102860027953        2.90229449896685
O           -9.75072745841664        1.40997202077888        2.59605506446205
H           -9.24341913622612        2.14310260291501        2.99678799021235
H           -9.22145651151952        0.63048114909062        2.80683086813417
O           -5.76466242983765        1.29573800152502        4.12118007874671
H           -6.16463446367658        0.42158068187120        4.17511319398113
H           -5.48745319014551        1.38797448029922        3.19425500927791
O           -3.26058084716500       -1.02535724079055       -5.35680260143327
H           -2.45861142846002       -1.41637230121246       -4.96718710112239
H           -3.19186036955116       -0.07878377831924       -5.16719891512039
O           -7.90371116169124       -1.68152004083893       -2.61344593930709
H           -7.30761119994428       -1.67235596669662       -3.37637286840777
H           -8.73270812995286       -1.25400424421433       -2.89061700056075
O           -3.03960539600327        1.23210326951110        4.95500054496737
H           -4.00700679347765        1.18820662438297        4.89507389934387
H           -2.71515180415360        0.35936690073335        4.70677248823075
O            7.92806872219812       -2.29027613403833       -3.91382731016754
H            6.97655963615749       -2.46085588359001       -3.99766603288858
H            8.03533353569976       -1.35662489022844       -4.13826324612303
O            4.38812612426471        0.30814073922741       -4.76459759294808
H            5.01777813009606        1.03529196484941       -4.79028084310184
H            3.52282990925782        0.69645639238558       -4.95687004970851
O            1.28982452856845       -1.29507032658705       -5.32106195068316
H            1.40350945163098       -0.33180167383444       -5.32528004991547
H            0.36345242021958       -1.45145834739637       -5.08268477713630
O          -10.18971517974558       -0.08642779574033       -2.87971100936752
H           -9.73931873592431        0.71630970878487       -3.17703661755838
H           -9.95069470963203       -0.13903174658930       -1.93534547910205
O           10.48540525721199       -2.33281010406593        0.87579953661242
H            9.88478971197967       -2.39125752202853        0.11514165563338
H           11.21713764694772       -1.79149221139107        0.53917966657663
O            6.99767349166116       -4.02040934485367        0.17668116121261
H            7.64418873166460       -4.69946499968088       -0.02592262172940
H            7.30222120248808       -3.63990317087458        1.02881143295907
O            8.27635074692590       -3.16979292530104        2.45278142753410
H            7.94850623079825       -2.29746661653080        2.69734611841492
H            9.16926458667400       -3.02152717715269        2.10923280024226
O           11.66899355947305       -0.11397222584611       -0.35545151789724
H           10.90420989606932        0.04765739957441       -0.91656599629059
H           11.65940937138351        0.60329703097620        0.29003378564077
O           -3.25803907867712       -4.03124347579916       -3.80326529573002
H           -3.32547779298839       -3.39166018051899       -4.51826456410557
H           -3.65116645597691       -3.59858780615439       -3.02741024677323
O           -9.77029369500661        2.63866422250745        0.02734459320439
H           -9.10542384512795        3.34330486275072       -0.01677077816743
H           -9.68259312829501        2.25626004262800        0.91706944064735
O           -4.99096372888079        5.27385178047410       -0.38001558139643
H           -4.20061423393888        5.64178201180381        0.04044796563669
H           -4.66570109605756        4.95228665513419       -1.23198429119755
O            3.20879819795787       -2.13506504083404        5.18423463145964
H            2.49974372725283       -1.51184014953545        5.39960589286540
H            2.77630770001872       -2.82229137728453        4.65528581722712
O           -7.19897743267633       -3.94486569310451       -1.11637531339733
H           -7.46491485567171       -3.33530881241644       -1.82331707747835
H           -7.82830385017579       -3.74705862208357       -0.40671204520016
O           -0.69153471516329       -4.84309377757612       -3.07491768435831
H           -0.93432094476005       -4.89542502915790       -2.14516837621153
H           -1.53863031925714       -4.76950985039969       -3.54290143298028
O           -2.26007815820831        5.38217952679837        0.21688794491196
H           -1.67346231018969        5.30215977357355        0.97874896169451
H           -1.69557048954642        5.24171628416127       -0.55743472899730
O          -11.71116388142458        0.09262077778479        1.07457990730072
H          -12.04891280357765        0.64420766204311        0.34209470887023
H          -11.36777539238365        0.70697485676459        1.73934163775342
O          -12.01462604545393        1.50337501480617       -1.25856118516717
H          -11.66204281730824        0.97450091042849       -1.98700385566755
H          -11.29975486927671        2.10414925111607       -0.99931515659670
O          -11.43262106905587       -2.57380196195941        0.31123335834526
H          -11.72550378364852       -1.78901336267827        0.80021650296641
H          -11.45728798673644       -2.31025508384535       -0.61119636982296
O           -0.87418917380731       -4.07707404610528        3.89861410409025
H           -1.61783707961905       -4.21971036075156        4.49508543942408
H           -1.05750285621352       -4.57019463743065        3.08935282977321
