306
 energy: -589.324283365472 gnorm: 0.004829751035 xtb: 6.6.1 (8d0f1dd)
N            1.20666440020000       -0.00000000010000       -0.00000000030001
F           -1.13282176610000        0.00000000000000        0.00000000020000
H            1.55366869711722       -0.95231633269113        0.01174764443716
H            1.53580677449815        0.46247984259261       -0.83720824779268
H            1.55105117013684        0.49511399724288        0.81694955450896
H            0.10446531330000        0.00000000000000        0.00000000020000
O            1.57141116544420        2.24524590820137       -2.00198943116783
H            2.28671322675056        2.85181179543253       -2.26379213848937
H            1.30735171964421        2.56632361058118       -1.12795222964857
O            3.82540063952634       -1.55981512956304       -0.59850402091516
H            3.36249403670012       -1.40503444194285       -1.43595789834004
H            3.93268069942944       -2.52459304691399       -0.52976476944316
O            3.43551028275455        2.89352402138794       -0.06617379552990
H            3.10213806444790        2.38351348431615        0.68739571357533
H            3.91723317547162        3.64994582444449        0.31315028061677
O            4.75440016489243        5.06553735278018        1.06855366624283
H            4.96759127790163        4.44401716155877        1.78590100250225
H            3.87490830527541        5.39924645229103        1.29586347393243
O            4.80591540697519       -0.32524382347720        3.87522285815455
H            4.39076264574951       -1.09089458040221        4.31689587645673
H            5.76759259353151       -0.45947142275061        3.90136916062821
O           -2.08445565354529        0.62415631845901        2.31618024764236
H           -1.84436331279402       -0.16287702369486        2.83466270607678
H           -1.76555357670862        0.43497595146836        1.41291725640093
O            4.33724538773223        1.14491856972846       -1.98444596961411
H            3.88936841638038        1.69990551435110       -1.32060205683498
H            3.63641979001868        0.64669538367088       -2.43683302428595
O           -0.75202460110709       -2.11058557098985        1.64444147503661
H           -1.08755827071219       -1.48460434964826        0.98423481695455
H           -0.87784861582471       -2.99065116506485        1.25893805556053
O           -6.10377111532774       -0.58153902232169       -0.72264354383418
H           -6.79158423108047       -0.88139738796822       -1.34473223245593
H           -6.50291972342988        0.14810329889692       -0.21547926319157
O            4.97171865360154        2.83407883206665        2.72295255971698
H            4.72390287611381        2.07792849967033        2.17187864557885
H            5.92669470796096        2.73699469485391        2.86289216222716
O            1.16640006862293       -2.69639966405485       -0.93533831614610
H            0.19915266880345       -2.67196301440034       -1.03744362629853
H            1.50153439637401       -2.84899199746302       -1.83924297686173
O            1.92863339483832        2.05077827177683        2.23043630149120
H            2.54406030154133        1.78432354374180        2.93606244816894
H            1.06025040529685        1.98279246658026        2.66480815597053
O            6.31802289793425        1.49277257307327        0.09021668145864
H            5.58698337007335        0.97657457348726        0.48603244110101
H            5.88820625418972        2.19285566349699       -0.42393589740631
O            4.10815330280314        0.42370088551320        1.29829388240271
H            4.27023047100411       -0.02683229883418        2.14797382105387
H            3.96947668272938       -0.30480864482806        0.66408976564207
O            7.50519100331473       -0.25124097601834        3.20120092628050
H            7.15661255503361       -0.52431608587733        2.33057286883993
H            7.58354936062062        0.71634335296962        3.11817187773211
O            2.00704486752458        4.80544267383194        1.58761440526364
H            1.13358307866375        5.11057405412949        1.85845222319104
H            2.01787186502419        3.85497051841549        1.80091843933563
O           -3.42368723537841       -3.59548708062629        2.31789767578157
H           -3.31246225176708       -3.45199494081218        3.27742479495248
H           -2.65295320382388       -4.09610615302213        2.02436919807132
O            1.18549504111503       -0.06654537251715        4.96012160215606
H            1.80227891761164        0.65490757333846        5.15855467823450
H            1.42638017776331       -0.32905606929078        4.04601795897334
O           -3.39627802259784        0.35199500432919       -1.50950161090510
H           -2.75103640967308       -0.00034154077866       -0.87701673936294
H           -4.24892629281039       -0.04804238511238       -1.27440205826315
O           -5.68829853470703        3.51060929844862        1.78115186990561
H           -5.51112921352379        4.07234008378495        1.00920752952502
H           -4.85540270454606        3.49704785641820        2.28287804545658
O           -4.69775866270687        0.75846438462246        1.57318219672431
H           -4.91836909863502        1.36743362974127        0.84544419809211
H           -3.76875717884372        0.95816390386905        1.79428248662536
O           -2.81486452080981        2.53548679337061        0.25898860485487
H           -2.94647975661669        3.47256968759454        0.05183118944660
H           -3.13715617587388        2.02818107990836       -0.50156126260045
O           -5.41621371718378        2.26629108476437       -0.82322221887112
H           -4.79343555752082        2.91088658198469       -1.18891790903981
H           -5.62729787131755        1.69234890015844       -1.58573631896057
O           -0.72289381126046        2.45306360420148       -4.07480687557908
H           -1.66204267092357        2.32822335996955       -4.26430855445082
H           -0.66522458596527        3.11124835654172       -3.36008227763784
O            6.39845786849367       -1.36204037332269        0.99312225875825
H            5.61122401902923       -1.83176248446362        1.30792114375414
H            6.29638616432126       -1.29757692649656        0.02915670230007
O            1.67530619123801       -3.45603350312169       -3.54023888950369
H            0.86069772285355       -3.98562542777530       -3.56206845821686
H            1.64143634245958       -2.87795176145628       -4.31663804319235
O            1.73580110018593       -1.06756749487464        2.49202051279357
H            2.53367669366893       -1.62314251072507        2.45415100867548
H            0.99784381388661       -1.66862088646416        2.30184346560176
O           -7.37540190464349        1.35546786253180        0.93869195560759
H           -6.85362709469258        2.15192152541636        1.13328051255178
H           -7.36940148529467        0.83279386458578        1.75574915026571
O           -0.68746749179029        4.38805205254701        2.43835296875008
H           -1.61588474850874        4.19446525880593        2.67740147895840
H           -0.21320356212055        3.88132657042940        3.11480805853321
O            4.22760442346227       -4.30367132812057       -0.22193668881097
H            5.18788232545842       -4.31616435065796       -0.06106839154846
H            4.15397831141621       -4.51727442479057       -1.18431730215731
O            7.68124353786019        2.38310978282210        2.32552177989608
H            8.64433593446218        2.41485964242278        2.20870230121596
H            7.34286512571193        2.18585310860160        1.43195475785279
O           -0.80541727951918        4.10080086652401       -1.81794854841707
H            0.04669027692843        4.59045841325997       -1.79760547297374
H           -0.64701577370577        3.42294307787587       -1.13170227000961
O           -1.32545895038560       -1.19913674964810        4.27592080813819
H           -0.51641998844837       -0.88945269165986        4.71286493448991
H           -1.03514450317010       -1.89886262339482        3.66552218167452
O            6.28820193499484       -0.81794660744693       -1.75367342052156
H            5.59405116008055       -0.14473985730282       -1.63890016522539
H            6.88058582812836       -0.45387017214487       -2.43497259775208
O            8.66337513247306       -2.26016257464880       -1.26713386850382
H            7.84995794832471       -2.60276455278521       -0.86295848265380
H            8.50699304332720       -2.35815357409376       -2.23076537767754
O           -3.45327209683004       -1.51609054751536        0.55040924789598
H           -3.48259036919840       -2.21659168694473        1.23506640281345
H           -4.03978114502466       -0.80784913326443        0.86614064974167
O           -5.02954149155721       -1.42221713402792        3.48932011609923
H           -4.63736079663174       -0.70174853765773        2.98078578171396
H           -5.18678821347195       -2.11399064195834        2.82088661975509
O           -6.01723964557026       -2.58856615632754        1.21662357881854
H           -6.92969611594839       -2.90948965237070        1.21410579030880
H           -6.00433805842227       -1.90234249314036        0.52410805169606
O           -7.75271103492107       -0.73318035660586        2.79624307897771
H           -6.90034599502846       -1.12057787638957        3.04692157064627
H           -8.18172861857797       -1.40813864272796        2.24559920390835
O           -2.77734799416569       -5.19564815687198       -1.11691156999220
H           -3.10136982248035       -5.42507279727294       -1.99340366357011
H           -3.59283173628172       -5.15977390949732       -0.56285654999277
O           -0.30487203833058        2.10725660248975        3.86548948016437
H           -0.09253091485527        1.53713709664082        4.61548769924660
H           -1.03512911410901        1.65891097152444        3.40595622635626
O           -3.40946409534115        1.52665304780848       -4.00290071064389
H           -4.37840865961700        1.52638472088867       -4.07840713202688
H           -3.26425948466266        1.00890089822266       -3.18874023162158
O           -8.75539312414879       -2.61499838892130        0.85137081180429
H           -9.69015516462545       -2.89300316608253        0.88212009750750
H           -8.81269649347869       -1.81120907928494        0.29706580944431
O           -3.12552560146259        3.22908821811094        2.97181775530710
H           -3.01603012405296        2.64534004127737        3.74676326928480
H           -2.88624217079115        2.66966711363734        2.21818608939700
O           -1.58884893926610       -2.64364326275814       -1.23952362157685
H           -2.03350916798313       -1.90513337761972       -0.80355867929615
H           -2.18977821447292       -3.40329340237734       -1.15042488328064
O            1.67071660046952       -4.77521109571007        0.74982826695710
H            2.53512035924811       -5.11039428438412        0.47146698616106
H            1.54781445840693       -3.98738075750786        0.17910000337787
O            4.07614441268897       -2.63868081893325        2.09774625422687
H            3.99325377653957       -3.14186943884325        2.91355521850051
H            3.85304695471332       -3.25117143921121        1.38170582548116
O            2.32479036419956       -0.67645022131091       -2.79012355112481
H            2.49897576003689       -1.11927577341497       -3.63184338694968
H            1.36281684844043       -0.54199007652564       -2.77079999495396
O            6.07765400062675        4.01425541826696       -1.20566743847309
H            5.70778628744624        4.59184267385222       -0.51940411963540
H            7.01013533796586        3.89963317299555       -0.94812811384655
O            4.09359504041068       -4.71868738844268       -2.87323923836012
H            3.19124342738985       -4.48593761183801       -3.14439261558180
H            4.62276763147047       -4.01328012036392       -3.27779894293743
O            3.26037244714580        1.79197063709721        4.66347963835287
H            3.89587909968352        1.07206509161277        4.48645377492630
H            3.74423683450097        2.58683937572529        4.40682926468960
O           -1.08919117285083       -4.90382087611725        1.12764751417801
H           -0.14711569777282       -5.08630090770638        0.96985991922894
H           -1.55894341604562       -5.21750990021021        0.34034044372558
O           -8.49583921425644        2.04819894718310       -2.40292231129317
H           -8.31503006638074        2.99763344466105       -2.40345861796819
H           -8.82119186862043        1.90067001934708       -1.49895452859626
O            8.72904488957360        0.42119226716621       -0.84747733923249
H            8.74617924801976       -0.55448344545628       -0.98487253376868
H            7.81815382612588        0.57685399854704       -0.53733711801674
O           -4.56402780448429       -2.91304017521534       -1.58114874474773
H           -5.38619777056290       -3.34140149936741       -1.29085645737161
H           -4.27692354721626       -2.37640420264969       -0.81999083581242
O           10.14865167133855        1.62852265669497        1.30462184792329
H           10.34799400440466        1.01034548253629        2.04190820266125
H            9.63854345787944        1.07703788132022        0.68898430685532
O           -3.54033251196183        3.77118741621462       -2.31897208613890
H           -2.61153681025542        4.03110150504502       -2.21675970770366
H           -3.54122181582211        3.10695252617421       -3.02883944223560
O           -3.28161536712869       -3.03856686919005        5.04007255345713
H           -2.59816368819103       -2.34889490627302        5.04423722856061
H           -4.10321121857733       -2.55178209518613        4.88819560494965
O           -5.00815059783653       -5.13039368355845        0.40317561803526
H           -5.81895304447261       -4.89817810850517       -0.06901078940914
H           -4.89280314595853       -4.43449872592362        1.06779500745727
O           -0.08540025204683        2.54591896558221        0.32987798503640
H           -0.26910430346544        3.17295258447396        1.04957283962758
H           -0.82933013180612        1.92579959221928        0.34797684722001
O            1.60341846594198        5.14788905991598       -1.22943004743908
H            2.35905196199895        4.93922527812996       -1.79542865727348
H            1.87238496484152        4.90810777568380       -0.32715888879799
O           -0.37093923641150        0.15456900487538       -2.54527602310435
H           -0.39503696981846        1.02364992038072       -2.98825223950244
H           -0.82703480971413        0.25460069391443       -1.69627994551236
O            3.66653627705395        3.97035166708905       -2.82391545867402
H            4.05684090163265        3.63866421764283       -3.64057393110482
H            4.37753005003704        3.90510676810271       -2.17047795584790
O           -5.47655284266039       -1.52537408311098       -3.84262333004034
H           -5.08018014781980       -1.93066052829346       -3.05282693984755
H           -4.73970800436946       -1.40961645337402       -4.47746780579204
O            1.86128411946168       -3.78457191185486        3.35529043245369
H            1.81278419419301       -4.18804295874894        2.47063865364113
H            0.96752972068420       -3.87052296610131        3.71779108149625
O           -1.08904447637771       -2.04019991152477       -3.98325147165835
H           -0.95189153534777       -1.31294148847312       -3.34782805521925
H           -1.13035740908897       -2.83244406710999       -3.42792459679843
O           -5.99612568725597        1.08934154083974       -3.22223735411927
H           -5.91905716270437        0.12382987797131       -3.35605293597552
H           -6.94123255748702        1.28043533865522       -3.10035002613495
O           -7.52751051946033        4.10491848613530       -0.80832286121539
H           -7.01562076894000        4.90688048682743       -0.64917807679686
H           -6.87312560953296        3.38941150449426       -0.72134985280399
O            8.68083879487824        3.29173102548750       -0.47174249829106
H            9.29067345501551        3.32334560057116        0.27430917444130
H            8.77476882555099        2.39569196908654       -0.81772131452293
O            5.96022355841380        2.55813886701192       -3.65540815104670
H            6.30254009710530        3.27604530499070       -3.10741245960910
H            5.42002658103141        2.02902226906037       -3.03185880956611
O           -9.34250548226069       -0.19585680950908       -0.25000608331987
H          -10.18376072233868       -0.09753636389028        0.24906611066772
H           -8.77079140496894        0.50559708296153        0.10449008910075
O            7.91262346288006        0.55475192251038       -3.57623926877200
H            7.32754028121627        1.31063244880767       -3.75652922741704
H            8.44521343637749        0.79974595131632       -2.80761452410819
O            1.78772957236907        1.44793322247450       -4.70153009362811
H            1.77199754449145        1.39910663357342       -3.73426682788394
H            1.00737805260286        1.98455081353182       -4.89996937929173
O           10.30810002189146       -0.46040405777361        3.00538655225284
H           10.40800149288769       -1.17134052619871        2.35221914207777
H            9.38547359633235       -0.51603165326416        3.29885233181128
O            5.06819450466741       -2.24557982120022       -3.75036645076378
H            5.31338700610033       -1.84138775629803       -2.89918133709015
H            4.79888159876046       -1.49391248444579       -4.30082639479402
O           -7.84227418824014        3.13449278510345        3.56624846298663
H           -7.23493683438041        2.59125517350415        4.08867535184502
H           -7.26662501959317        3.54247821353668        2.90325905768348
O           -9.74957929414466        1.41017485168982        2.59407316066967
H           -9.24466380377288        2.14307400447645        2.99804866981622
H           -9.22261899649325        0.63023169600549        2.80849127049994
O           -5.76356804756867        1.29448750575517        4.12146096419640
H           -6.16683410691005        0.42192514316095        4.17641249252094
H           -5.49152358980022        1.38827049933470        3.19375074540150
O           -3.26488360140291       -1.02560887566980       -5.35240640756863
H           -2.45877754037673       -1.41750624466766       -4.97148365871869
H           -3.18863366546253       -0.07797818163366       -5.17290877229320
O           -7.90066429670446       -1.67807171186180       -2.61115038319936
H           -7.30877681546232       -1.67356835623188       -3.37737917896711
H           -8.73212330243800       -1.25420650391399       -2.88771583731637
O           -3.03898361406388        1.23176905162415        4.94535232074983
H           -4.00694870288921        1.18588788376879        4.89796237754029
H           -2.71520916171859        0.35410436073778        4.71430461363188
O            7.92895824603905       -2.29054884752454       -3.91602342448678
H            6.97660893153720       -2.45990983184274       -3.99493601302465
H            8.03485927821592       -1.35570466631782       -4.13624107366766
O            4.39111706801975        0.30610350064622       -4.77585336309356
H            5.01815234341231        1.03587690564502       -4.78446224154986
H            3.52371084169135        0.69646566202657       -4.95290775295887
O            1.28562171452581       -1.29694512420892       -5.32898111602548
H            1.40657284924580       -0.33427213647091       -5.32338487643009
H            0.36098412557972       -1.44955295720713       -5.08384829811758
O          -10.18786155547397       -0.08750658385372       -2.87994808010716
H           -9.73966765283538        0.71635328193106       -3.17738435916179
H           -9.95050282182484       -0.13885420295344       -1.93520652667556
O           10.48669653454980       -2.33400041035423        0.87502475167537
H            9.88384607729482       -2.39075188023861        0.11584697607461
H           11.21656672234687       -1.79039679926815        0.53816494136865
O            6.99810250461284       -4.02201364370876        0.17663617404378
H            7.64656281824925       -4.69934431683377       -0.02490195028371
H            7.30123833873373       -3.63807373973465        1.02766961822997
O            8.27761272443873       -3.17083926295035        2.45527099970262
H            7.94652752307092       -2.29819547330689        2.69461538241316
H            9.16884434952464       -3.02071485575233        2.10838651867203
O           11.66991261457592       -0.11302354107619       -0.35672764798145
H           10.90308103675149        0.04649360926305       -0.91584262218732
H           11.65773160843214        0.60281429096811        0.29049628277810
O           -3.26282534587376       -4.03292592690690       -3.80359291319875
H           -3.32365741961340       -3.39335928230533       -4.51925943686094
H           -3.65166952867633       -3.59709026663313       -3.02821681870149
O           -9.76800690689566        2.63686165194344        0.02602768448122
H           -9.10646987557010        3.34462077201452       -0.01633960229402
H           -9.68387222079300        2.25727303634227        0.91728747688806
O           -4.98962376119442        5.26980737208379       -0.37866173969502
H           -4.20078725668465        5.64312630688299        0.04020434954884
H           -4.66452508861375        4.95475094318426       -1.23305478269293
O            3.20633561781641       -2.13791469725478        5.19049475268630
H            2.49905314057878       -1.50991871247145        5.39649866066831
H            2.77743510033043       -2.82016300527093        4.65241482194895
O           -7.19484266416483       -3.93979192463416       -1.11478437241627
H           -7.46657286315499       -3.33587040179567       -1.82442270783378
H           -7.82928147879104       -3.74835798300186       -0.40781967523939
O           -0.69285548980841       -4.84174026902959       -3.07652271367312
H           -0.93126565857559       -4.89914141024355       -2.14617677047726
H           -1.54081664321624       -4.77225634291194       -3.54287745439270
O           -2.26242492668190        5.36949057364718        0.21781224008870
H           -1.67208374363070        5.30653840413726        0.97864297339728
H           -1.69433736365662        5.24365409110466       -0.55700968641252
O          -11.70909193269595        0.09242771889824        1.07375112245980
H          -12.04972708884204        0.64376199744053        0.34239046734982
H          -11.36906784489632        0.70715780234140        1.73980948542157
O          -12.01424920908124        1.50253179951661       -1.25787628902861
H          -11.66295193482642        0.97503263412508       -1.98781067187991
H          -11.30020213617212        2.10470174765009       -0.99995549912572
O          -11.42906143818200       -2.57299518924411        0.31160895271251
H          -11.72635212398812       -1.78973987453447        0.80039463430263
H          -11.45878676056160       -2.31104528696416       -0.61115610442424
O           -0.87945110937102       -4.07086787195935        3.89751249914377
H           -1.61827962950994       -4.22437116070072        4.49690046748020
H           -1.05335139293684       -4.57451819105227        3.09273840626525
