306
 energy: -589.304034401929 gnorm: 0.005197148552 xtb: 6.6.1 (8d0f1dd)
N            4.80666440020007       -0.00000000010017       -0.00000000029923
F           -4.73282176609984        0.00000000000004        0.00000000019994
H            5.13025609220148       -0.74098019432805       -0.61147511811902
H            5.12462571532734        0.89038924013657       -0.36150663860229
H            5.14226946640639       -0.14065369941642        0.94651057970686
H            3.70446531330002        0.00000000000001        0.00000000019999
O            1.96104130999108        0.77759800184625       -0.71125616136585
H            1.89237577075930        1.74722460401857       -0.76699191222553
H            1.11209614540708        0.51632181308356       -0.32266214250920
O            5.38889009163678       -2.67651476813384       -1.08721289026265
H            4.50221351324452       -2.51487721101834       -1.45155285776564
H            5.60852523468667       -3.57019215659372       -1.37625295646363
O            4.28785897196848        2.67643697410662        0.17681685647370
H            3.57670511330093        2.34945241322497        0.75367364863416
H            4.36624146046120        3.62181977513278        0.38801751066521
O            4.77080660398693        5.19743942583924        1.27782834207011
H            4.88028455586527        4.62813780866629        2.06056806051941
H            3.82521216891851        5.40470791164179        1.26976247990118
O            5.76175981220852        0.08675642529144        5.36662921379687
H            5.27504837175533       -0.74909952399931        5.29812751422648
H            6.64866011274919       -0.11639421768927        5.03613818824268
O           -2.32240229006374        0.07542094111822        1.32121320316820
H           -2.05861150331798       -0.84722476573594        1.47434251330367
H           -3.10526998893797        0.02117630449085        0.74635394458231
O            4.13370834647780        1.42908775035009       -2.47800967336410
H            3.65839745464508        2.05500714029918       -1.91428778347737
H            3.68971724899051        0.57019172922228       -2.35548751137019
O           -1.15019041089880       -2.48150841544167        1.34964862303790
H           -1.39394945829005       -2.54748467868694        0.40066530807626
H           -1.39311805542439       -3.35037305536628        1.70524558519811
O           -6.74714274539872       -1.56994241020023       -0.44942701298840
H           -7.15091970307501       -1.57309581558478       -1.32715255969450
H           -6.22393410768725       -0.75182991075240       -0.39299896646263
O            5.05296652196593        3.10877347905891        3.09687433580090
H            4.79298485171410        2.30690230353982        2.61763314021888
H            6.00264710517999        2.99864969491952        3.25602027759855
O            0.96931628774979       -2.02566800600719       -0.78700539971063
H            0.14362794760343       -1.56949156126324       -1.00470414310615
H            1.03722446723438       -2.75165471900217       -1.44364118033070
O            2.35257926627057        1.82544486899791        2.03131961452070
H            2.53429369560921        1.53210843094416        2.93989965237738
H            1.58427492819941        1.31310505566175        1.73505622119237
O            6.94975936097935        1.62898108427121        0.41883542906315
H            6.78846842084628        1.52235786145762        1.36456412444178
H            6.51319592982240        2.46427591243734        0.17681814224646
O            5.03428756669361        0.34676713311800        2.73117734492487
H            5.43656104534251        0.43899826440851        3.61695676804639
H            4.41600828660353       -0.38868055753478        2.87856457636294
O            7.70615486203960       -0.41575684241048        3.35299926097311
H            7.15904720754879       -0.79696091569669        2.64796356945332
H            7.96196381834648        0.45193599974981        3.00893916688019
O            2.04665095870802        4.51606420485434        1.34923440517854
H            1.16691601179903        4.79550678425931        1.63786043087921
H            2.14249770860136        3.62803274099783        1.73824304870706
O           -3.52660504646970       -3.88756561895409        2.71875684973738
H           -3.31434406098100       -3.68544614208936        3.64761115907747
H           -3.03716351942016       -4.68406563068539        2.48456897695348
O            1.32561496005572       -0.64165164412138        4.39886939425465
H            1.39318190981754        0.30508845983886        4.58487918477227
H            1.29376620955181       -0.68832937858981        3.42335624703641
O           -3.62561470142888       -0.86237457980756       -2.08629403036019
H           -4.11749738704232       -0.55197454123491       -1.28717438859106
H           -4.27639903136531       -1.39014002583586       -2.56397955200191
O           -5.69567055895821        3.18515042089836        1.88281278012399
H           -5.55945808352928        3.81296299202659        1.15447372631555
H           -4.78906213768900        2.94509834982704        2.13504757629110
O           -4.90931879427604        0.22560095017553        2.50580902671712
H           -5.06484042936289        0.20296063001579        1.53457663369583
H           -3.98605040726427        0.49866619717298        2.58298460723967
O           -2.97311416399542        2.10414327731826       -0.51856149264733
H           -3.45139901172324        2.94868362275601       -0.49380942212271
H           -3.69728589573536        1.45785892577092       -0.56957307832399
O           -5.62077943100699        2.20531042275701       -1.16462900920459
H           -5.87239281989470        1.69319794862538       -1.94354408888108
H           -5.78407076668666        1.58424054509571       -0.43536649819328
O           -1.23536702087227        1.76074200183657       -3.77785486764198
H           -2.17044894229528        1.72977399859377       -4.02631264391774
H           -1.12649174739334        2.59510624453274       -3.29191016709153
O            6.89827476922695       -1.61725320300548        0.95703817228007
H            6.24301461556229       -2.22737012967199        0.58091341424005
H            7.50344039716016       -1.46300645838453        0.21977191816714
O            1.49087785554043       -4.03496914500828       -2.55129158260500
H            0.70196451682530       -4.61289329823080       -2.63277384395575
H            1.53400129596327       -3.55304662714528       -3.39084630640733
O            0.96389464342385       -0.66076936596891        1.64954477401868
H            1.71083747550425       -1.01881138159227        1.14338889749820
H            0.25554970027535       -1.31016248275679        1.49846291576160
O           -7.19860735112626        1.04027138495598        0.94180673937546
H           -6.80764867632746        1.84162451795392        1.33520275520731
H           -7.23083258950293        0.39503099708192        1.66710178179045
O           -0.48730034451433        4.00233161053722        2.44252616392691
H           -1.44476474305805        3.82015397220836        2.48960855168404
H           -0.11511253458976        3.29718814152698        2.99533467566541
O            3.91154431897186       -4.60512962296509        0.18879594079067
H            4.83233286153415       -4.66669938482045        0.48062788943941
H            3.96457409411293       -4.70464452254231       -0.77454015382292
O            7.85244895755628        2.53788071385087        2.93494355752980
H            8.57088957545760        2.36111143765725        3.54681804324747
H            8.29936930863449        2.85992604100289        2.12887079858962
O           -0.75387243649167        3.52482190630394       -1.71521794882813
H            0.21435396354328        3.63858402734544       -1.69257535778452
H           -0.91111655827360        2.82663556189853       -1.05426472992384
O           -1.37445113213078       -1.26116264238796        4.00816831628901
H           -0.47610054172280       -1.08988581714078        4.34500105150443
H           -1.25197339130983       -1.92032930685931        3.30994078155191
O            6.46672255961812       -0.28505695415230       -2.19312857284172
H            6.28462257955124        0.49059623527871       -2.73568023834236
H            7.05493750323952       -0.84130527946997       -2.73101436120423
O            8.36535545500107       -2.57842673678617       -1.33529111760716
H            7.72348242534001       -3.23707335091123       -1.03385628327021
H            8.26990589084291       -2.53906593188007       -2.30497007139355
O           -3.82492250686972       -2.43308113070749        0.38666862910926
H           -3.84973830843217       -2.87343399238426        1.25379705413745
H           -4.34076038679166       -1.61394957103110        0.46052249878405
O           -5.29709833846106       -1.94989983745222        4.17052598652619
H           -4.96396860325437       -1.26191444186432        3.56740802801702
H           -5.49689444079708       -2.68147359839558        3.56385515404604
O           -6.35498127050600       -3.07247105777797        1.84846216742135
H           -7.27087798138247       -3.37926255380041        1.86918610662060
H           -6.34217618778142       -2.50284341799644        1.05845729661455
O           -7.81071202914910       -0.83431045154054        2.97252326551451
H           -7.02828532175346       -1.25910193284937        3.35171757405895
H           -8.22524408194650       -1.51197413826598        2.41316542180143
O           -3.02644816068965       -5.22129890941100       -0.98963942441117
H           -3.43568967927868       -5.31127972006944       -1.85590978918612
H           -3.80861170936801       -5.16687649095965       -0.38859660496683
O           -0.30712525414271        1.40655941681392        3.42315094166408
H           -1.06356663062705        1.30845546896663        4.01805976412617
H           -0.47992909202385        0.78489925394403        2.70426661843667
O           -4.00604967611418        1.29677277887373       -3.69546631455253
H           -4.95776787035430        1.21489124801350       -3.84287795331904
H           -3.84574656367073        0.67468427700773       -2.95768448490656
O           -8.93415065171543       -2.66587734849726        1.05173348810810
H           -9.90972721497048       -2.71840645647955        1.07485373476303
H           -8.77998948774509       -1.90205421150096        0.46461266125067
O           -2.92031057435190        2.74322961162712        2.24353892811783
H           -2.82549066207555        2.07626717948452        2.94371145590720
H           -2.80503223455298        2.27105221075043        1.40185906098750
O           -1.69551151953583       -2.78795312632274       -1.32005649348367
H           -2.40610232870612       -2.13455021970061       -1.46110928355401
H           -2.18079640863597       -3.62424370283033       -1.18862599981980
O            1.12567188121193       -4.37542550621771        0.78655230917516
H            2.00246435254273       -4.63674204163258        0.46889908397674
H            0.95522494001549       -3.50586486159172        0.38663558153299
O            3.45989270126102       -1.95416695472866        1.23381941374179
H            3.05220696954190       -2.26380355882070        2.05913764227466
H            3.61811788368396       -2.76803559758363        0.72649164702291
O            3.24171767862317       -1.28270189398049       -2.15797411067285
H            2.85762138720420       -1.55878523027473       -3.01172124265030
H            2.47885002082848       -1.29637551429122       -1.55052678139993
O            6.76314794543171        4.30778721815891       -0.48279413396880
H            6.21872986378578        4.81004762425996        0.14580850059776
H            7.67417336690988        4.37456743094016       -0.16749763710036
O            4.22419137877392       -4.57969115023998       -2.68381474406250
H            3.25183767205555       -4.56752896416206       -2.71473418910850
H            4.49708908607803       -3.92620737764838       -3.34565771199298
O            3.25139499681296        1.55209940014102        4.69881521849160
H            3.94268890253652        0.98129636662041        5.05891473386952
H            3.71609860462860        2.37109788476239        4.47928021170533
O           -1.40810588064745       -5.36313304113249        1.40987400753068
H           -0.49396189813044       -5.20914008344052        1.11622922546312
H           -1.91341748818415       -5.51615300466516        0.59988212232087
O           -8.31844808350882        2.07632818640504       -2.19755953047577
H           -8.01719222495898        2.98946515847088       -2.27196333492893
H           -8.62401898763066        2.03037910578725       -1.27139788037780
O            8.93498270100060        0.27805656370272       -1.08265578596458
H            8.77933844851681       -0.66434863667062       -1.23952319529751
H            8.05133859960913        0.63462346377612       -0.89820690288202
O           -5.06699685818490       -3.39744847577438       -1.88032531368223
H           -5.95784196704787       -3.65426674652104       -1.57483607332761
H           -4.65779101175483       -3.05248109990702       -1.06075200308711
O            9.82799597348751        0.87362499399846        1.71354474437832
H           10.17156563456448        0.22737517348491        2.36870599542897
H            9.41620268020914        0.31663753052120        1.03795895993211
O           -3.48994556393088        3.98450251103518       -2.65921037010264
H           -2.57206816783144        3.89904725479857       -2.37200945017178
H           -3.81102020420856        3.08032559054301       -2.78024022184543
O           -3.00326913872114       -3.10215769513600        5.34167589206947
H           -2.44934451525195       -2.33992308987242        5.10613349728434
H           -3.91049032427727       -2.76159716913554        5.28622686234240
O           -5.27445213441646       -5.24640312808828        0.48180467255020
H           -6.07011281707567       -5.12114971955065       -0.05422819935110
H           -5.34208039002941       -4.56425313063280        1.17006054654936
O           -0.21672671263999        1.95834142524076        0.52607723809474
H           -0.38056923653442        2.67279325534071        1.16367548837300
H           -0.96483183285730        1.34534760368955        0.60417865080155
O            1.97700370748233        3.54387412461089       -1.26871892814909
H            2.73632594553564        3.94668685955802       -1.72331026820470
H            1.99552087017698        3.93187238407956       -0.37381833685896
O           -0.92889103530508        0.10815005727000       -1.54361852090410
H           -1.07514782523857        0.78800245936758       -2.22733288538006
H           -1.79301342890284        0.01247946260169       -1.12550465886447
O            4.41717093304677        4.48898698001230       -2.33745093745307
H            4.85996173288804        4.18031317153642       -3.13461667516879
H            5.11885403787804        4.56646159063245       -1.68009311358710
O           -5.81272863821775       -2.18893934834019       -4.36407703629199
H           -5.55961359646819       -2.75929962855735       -3.62400089310811
H           -4.98475448319882       -1.94455756227918       -4.80311999196036
O            1.93308895246097       -3.27676197940251        3.21047593409762
H            1.62137248276569       -3.82209499420685        2.46653391772927
H            1.14828837454815       -3.18726914945600        3.76767137426226
O           -0.71255111668158       -1.77885421358991       -3.70243974612591
H           -0.66128627450093       -1.05737869658981       -3.05453685225265
H           -1.03061634126094       -2.52909955620960       -3.17526492019381
O           -6.38793716599595        0.11159141688411       -2.86986635991168
H           -6.45911567178405       -0.70451114752214       -3.39262632798726
H           -7.28304141603454        0.45497700941718       -2.73269682742589
O           -7.27687484007281        4.34095645711219       -0.64303685121682
H           -6.69050728891402        5.08120287043612       -0.45437064853555
H           -6.66576935887514        3.59024892718245       -0.76655951808025
O            9.20594367472913        3.27609531591218        0.57281550718423
H           10.04745052080013        2.94510823655783        0.90502595444433
H            8.78019606328253        2.48487772707853        0.21169548350624
O            6.56641544377210        2.71708958991078       -2.92677923384645
H            6.84519931693238        3.18588104210262       -2.12953922425710
H            5.70755740099966        2.32302953528828       -2.70227331088870
O           -9.34057354623386       -0.23698783172175       -0.24919001575828
H          -10.08975883769925        0.04252519642665        0.31403237069059
H           -8.58601743200550        0.30021588580529        0.05274374698724
O            8.42123636248940        0.78679791209266       -3.90406540018527
H            7.85517681808319        1.57178754244268       -3.86869750318531
H            8.84369603101334        0.75422685259465       -3.03430063597980
O            1.25605946385795        0.40610838900246       -3.50162050698961
H            1.33516892492863        0.51124931202170       -2.54075605208006
H            0.47724920371156        0.91805542423539       -3.76573585474772
O           10.43463568863879       -1.19658495487619        3.37302399384792
H           10.53936589509758       -1.80383730713125        2.63051617454547
H            9.50302249957297       -1.26424385026129        3.62533903017521
O            5.15305083752385       -2.14251729874155       -4.03771808257576
H            5.20956471330244       -1.75187232439202       -3.15357029706102
H            4.58400538508049       -1.52141436230073       -4.52273667285629
O           -7.46049858866532        3.00580534237744        4.11743220249109
H           -6.95812260352702        2.40069463289539        4.67882715942656
H           -6.86121961911858        3.24216355110694        3.39263676658482
O           -9.40127159249099        1.56313724027892        2.79102786251129
H           -8.88748465630814        2.19678415876952        3.32739747305735
H           -8.94667655416033        0.72146685438550        2.93572393866133
O           -5.72679937812008        0.84652806420360        5.01847776203868
H           -5.99042395370077       -0.04432272109850        5.27286455036379
H           -5.71024269163800        0.81444194557989        4.04669863159490
O           -3.19931714093264       -1.18602381124668       -4.92427639075838
H           -2.28411737229819       -1.27748961411699       -4.60262577283044
H           -3.44556201966795       -0.27670239460748       -4.69889672242150
O           -8.22130090249864       -2.22636282926466       -2.90649122456939
H           -7.79124970995878       -2.32388127571240       -3.76303413862684
H           -8.92536441644362       -1.56242583836410       -3.02644717800231
O           -2.94474147393300        0.98958467327731        4.46440540845122
H           -3.81694752153500        1.00874572924847        4.89455755979427
H           -2.69867473270498        0.05769438305543        4.37424529196088
O            7.93008544788649       -1.97146789341935       -3.99778364150766
H            7.03770220394201       -2.13788081821907       -4.34211599908454
H            8.20486099496243       -1.11385049625883       -4.35594910919169
O            3.65525395621846        0.11627482710644       -4.91910523246023
H            4.22182467845319        0.81028044812635       -4.56558971391271
H            2.80350993019699        0.27811846363700       -4.47331531682648
O            1.96072977473361       -2.15809606364937       -4.52910550923387
H            2.37767278546673       -1.62949946976872       -5.21636632275149
H            1.09898609037247       -1.73793830567543       -4.35744232181125
O           -9.95038055884690       -0.03876785837650       -2.90081058316879
H           -9.48045228827918        0.78001748790129       -3.11154885831611
H           -9.78536610850953       -0.14259913924351       -1.94116417257618
O           10.24818013933641       -1.89043201111914        0.61503490790308
H            9.82536271474235       -2.23301857994860       -0.18533199299166
H           10.94139971595184       -1.28209627098029        0.29437767730654
O            6.89247072506774       -4.61536552734178        0.24078476461897
H            7.21939597144453       -5.50549163225925        0.09924640970145
H            7.43629082124222       -4.25858675266732        0.97740305769039
O            8.55794715213550       -3.54786635737454        2.14121937396934
H            8.03189749828558       -2.74521979090778        2.25556999442164
H            9.32249236755019       -3.24974905923148        1.62937515731818
O           11.68291766505033        0.27578889013267       -0.33633340437893
H           10.91842631111536        0.47472948492860       -0.89233685935551
H           11.50882187026638        0.75112162839546        0.48563580661738
O           -2.99676006914865       -3.82380628145109       -3.73892823126222
H           -3.04580989586728       -3.08625804475355       -4.36001274029725
H           -3.69295673197519       -3.65992786892526       -3.08543555240925
O           -9.40266861998990        2.74159077370226        0.23882912974137
H           -8.77517028971092        3.48037418949155        0.19814794276807
H           -9.26352966762105        2.32017137298127        1.10652236065666
O           -4.49197458757705        4.72655086948777       -0.15887149524588
H           -3.65770923573644        5.14625367088966        0.10950392524168
H           -4.38399371247357        4.57880336025507       -1.11439662654409
O            3.89124359344574       -1.68034974987991        4.31323701677111
H            3.02010596906357       -1.28660574671765        4.51272896677531
H            3.65952932257372       -2.58793658222415        4.07883127175615
O           -7.60785045718267       -4.23801691090483       -0.96703603048189
H           -7.99753353989579       -3.77814347884937       -1.72558375920536
H           -7.99433522068788       -3.77526335244874       -0.20497926664006
O           -0.84234519309009       -5.39733493405681       -2.82717056680079
H           -1.27300320236506       -5.56407996761673       -1.98162718243164
H           -1.48651931067806       -4.86580511837311       -3.32246827915490
O           -1.77200208176662        5.39512756182942        0.16034574843615
H           -1.27715372867568        5.09472040025410        0.92939680243555
H           -1.42027526639364        4.89129385686365       -0.58964039394215
O          -11.53075371068792        0.50821607210366        1.26754399223475
H          -11.79110859411574        1.06732518139596        0.51383371820442
H          -11.05315374552361        1.08210388776420        1.88475788016535
O          -11.63054236031401        1.77112141862995       -1.20865660810814
H          -11.28762153673281        1.19676963404135       -1.90492307126577
H          -10.88035945278798        2.31173953750988       -0.91921994155739
O          -11.63631375829211       -2.23588582338632        0.77045226005810
H          -11.73261850269517       -1.37198930181414        1.20285537546248
H          -11.72471298391130       -2.04510837730144       -0.16558331304159
O           -0.70727901562128       -4.02993008448507        3.87648182447548
H           -1.35404669968973       -4.05727739149291        4.59178187235777
H           -0.90415442817333       -4.77149464037356        3.29238942896644
