306
 energy: -589.312186386175 gnorm: 0.007199755979 xtb: 6.6.1 (8d0f1dd)
N            2.40666440020001       -0.00000000010010       -0.00000000029881
F           -2.33282176609990        0.00000000000001        0.00000000019998
H            2.72138002952849       -0.96704435210473       -0.02691741866387
H            2.73590744764958        0.49463526073304       -0.81755253941902
H            2.71606811304256        0.44676244139892        0.85962561190961
H            1.30446531330000       -0.00000000000001        0.00000000019996
O            1.67492751899340        2.06693125074663       -1.92022206355482
H            2.19000024378713        2.88471278837063       -1.99418490704671
H            1.10292515749392        2.18925825443563       -1.14956939581056
O            4.16818959562193       -1.88086484918656       -0.79850887819628
H            3.77052090443576       -1.75919255981413       -1.67415041790863
H            4.22860400707649       -2.84325978461899       -0.66419584328984
O            3.59597864823292        2.86625068590632       -0.01545920113389
H            3.07138607701478        2.56567279745924        0.74156278489489
H            4.01141653243562        3.69780062568357        0.27994695602239
O            4.70386847391265        5.11757152463994        1.10898548860510
H            4.92441404738698        4.50451207922422        1.83157558617933
H            3.81430943834712        5.42881931214317        1.32896839538461
O            4.90470760328375       -0.32040831842064        4.12027987545526
H            4.48543047595813       -1.12097336951332        4.49654970694659
H            5.86222424043733       -0.47681360262414        4.08574502339513
O           -2.28690735984463        0.46554519412569        2.46327844839483
H           -1.96180689299407       -0.35075839967659        2.87616748462227
H           -2.19538657089325        0.29997713877453        1.49271785844039
O            4.45964497596463        1.16958389908610       -1.99820024384802
H            3.98095476794895        1.84965392707803       -1.49496823703264
H            3.80915262935378        0.71940055158878       -2.56212691156180
O           -0.97183031234983       -1.90673360903604        1.55850398601492
H           -1.46806612305523       -1.39205877507812        0.89910432066678
H           -1.08830832909559       -2.83016129251383        1.28296228553594
O           -6.44630041841958       -0.78747283080344       -0.66759429595845
H           -7.13556462266021       -1.05402615734699       -1.30150346842434
H           -6.78462656512929       -0.00542491391442       -0.20136016129882
O            4.97716921765814        2.87171495005539        2.75339324883677
H            4.73085758694928        2.12947591954716        2.18469878654057
H            5.93368085628691        2.77392978632657        2.88488194502984
O            1.14903996091636       -2.43833189401794       -0.74304201976313
H            0.18070018916061       -2.36383450134170       -0.82246640361251
H            1.43706445590662       -2.70013500436140       -1.63895459523042
O            2.12836795956215        1.97186271136991        2.21858033308481
H            2.56057837608472        1.86403645930969        3.09136250852644
H            1.22612423743476        1.65229621748874        2.37935988483283
O            6.44662160201308        1.55180965068356        0.01850582956934
H            5.75352635511852        1.04455716223083        0.48232454916594
H            5.97663938419876        2.25455841859335       -0.45414114432308
O            4.56048258180187        0.23539098716346        1.49875802121872
H            4.61902849929413       -0.04180330525842        2.43916013677811
H            4.62228790791095       -0.60532879360288        1.02161701056251
O            7.47689103499064       -0.26402199862291        3.08140308290939
H            7.13839418941763       -0.57387912348779        2.22153384560511
H            7.54848205024130        0.70221705250032        2.97608092048955
O            1.96609363358212        4.74097015996440        1.65539373346560
H            1.04272315483258        4.97512485356976        1.81932388379997
H            2.03093280739468        3.81722610498140        1.95317297250029
O           -3.59335549827368       -3.85641096021064        2.55342409239949
H           -3.41298399342771       -3.59650776650374        3.47534066171284
H           -2.76208926127604       -4.17369534826525        2.18221208132810
O            1.32581539105950       -0.19697194596635        5.01320296629426
H            1.81106302011805        0.62232122085252        5.18648240060205
H            1.42516582169279       -0.33436170600426        4.05011231605055
O           -3.91877727612463       -0.16335546515300       -1.94041317329548
H           -3.28624336944892       -0.12674841526271       -1.19060460112691
H           -4.76798397615722       -0.37735360098729       -1.52140134839699
O           -5.69073228346073        3.40990295838202        1.79412315419984
H           -5.45230319426350        3.97473124587204        1.04270390612747
H           -4.90169169342669        3.39611397711148        2.36281600119111
O           -4.82402273936143        0.58493445151522        1.41142005157054
H           -5.11161446230230        1.10231894798958        0.63852907049637
H           -3.92100361438760        0.88662829520229        1.58054556262815
O           -2.80955261030063        2.62260676402893        0.29536366145215
H           -3.29667032790646        3.41373713058151        0.03528233752439
H           -3.09474728784404        1.90072291408288       -0.27957183226273
O           -5.39780839887495        2.11968552145535       -0.91947432922596
H           -4.78791160164078        2.76589895508734       -1.30759754260191
H           -5.70261340075229        1.61315789030008       -1.69978242717369
O           -0.77319131233101        1.81986435331197       -3.76048559616379
H           -1.70224529889032        1.77391399674530       -4.02730107824539
H           -0.69840098594470        2.59068371531399       -3.17388307639763
O            6.59616669913559       -1.56917641786134        0.83057587476211
H            5.86805594420452       -2.16117438710605        1.06564366743497
H            6.47763669692504       -1.38277114588479       -0.11665613115914
O            1.69025213604186       -3.47035610999635       -3.26651457060362
H            0.85662855858297       -3.97192442539677       -3.32656858457460
H            1.73657979428411       -2.94366953073561       -4.07639175351604
O            1.52858581647736       -0.95996954054801        2.36540319304719
H            2.12516812877874       -1.71443749422892        2.48952883745322
H            0.67912044505392       -1.35862332314252        2.10005761848608
O           -7.46784201294775        1.36472927872324        0.94851910300745
H           -6.90000062686544        2.12710745312583        1.15298927882026
H           -7.46419131628422        0.82474307621431        1.75544882720298
O           -0.71002355958499        4.05405371161588        2.22229930628207
H           -1.64717576637677        3.97261926251383        2.48813816305874
H           -0.27976816213273        3.49193455979472        2.88746002142448
O            4.28651220586077       -4.56182774806254       -0.10555826408490
H            5.23816378025829       -4.62712511157175        0.08356904200395
H            4.23224070308407       -4.73850521124770       -1.07523501690915
O            7.67766207319730        2.42477666297151        2.33473976181769
H            8.64629661379282        2.43170021502485        2.27284628482607
H            7.38810393868189        2.26952583632814        1.41653315530020
O           -0.84623618932666        3.71078032291021       -1.68014429588229
H            0.01455244541244        4.17619859380553       -1.62275036594836
H           -0.81778429930884        3.07639158795196       -0.94278327369607
O           -1.21968333740782       -1.20734456477557        4.40086882339019
H           -0.40768399822269       -0.89860011014223        4.83408904762848
H           -0.94144638849471       -1.93224631881322        3.81920204939713
O            6.45413133358989       -0.72918320213264       -1.82541939660410
H            5.76395108912916       -0.06061627793853       -1.68169524905526
H            7.02389799136461       -0.36512552293757       -2.52766920779345
O            8.69177671562216       -2.35257609412318       -1.27559730343896
H            7.90948358904048       -2.72098415505281       -0.83823730909779
H            8.49356974482633       -2.42239521949132       -2.23207461807463
O           -3.74601302154569       -2.00820114839861        0.53194485007945
H           -3.85039073204116       -2.57263204306708        1.31794103122551
H           -4.03035086006136       -1.11482317782311        0.77348213191745
O           -4.91953763011468       -1.39295505062768        3.53584235390376
H           -4.45249481728330       -0.76841843965175        2.96682605838352
H           -5.18536866553559       -2.11080146194171        2.93608010683853
O           -6.21447590638496       -2.69084399542902        1.44146696877068
H           -7.11645716191061       -3.03483650879166        1.42177301209062
H           -6.17116212814991       -2.08696308516166        0.67854964016030
O           -7.78598398968155       -0.72231965441976        2.82183427145608
H           -6.89491851448234       -1.08219258963865        2.93518522039420
H           -8.25437150961210       -1.39950384916507        2.30752042581407
O           -2.86287706168788       -5.05746990330549       -1.12073225632360
H           -3.22251804959467       -5.12254144025995       -2.01114992644852
H           -3.66932049811915       -5.05732202796513       -0.55294212654006
O           -0.24320791807358        1.78279128363508        3.67364592276622
H           -0.29238871502135        1.46567497775785        4.58062759801123
H           -0.99000786876096        1.34476825507616        3.21552960143682
O           -3.58850235398988        1.48460685056846       -4.05674414514387
H           -4.51328662309995        1.61328693557148       -4.31367928655858
H           -3.67951283219653        0.87857290826006       -3.28469740922737
O           -8.90827143304722       -2.57378392158238        0.91274779212583
H           -9.84941709324670       -2.83392019991556        0.91793857219567
H           -8.92548075151637       -1.76828639665663        0.36049632181345
O           -3.17084995580649        3.13708232486453        3.03339236801651
H           -3.06636072957178        2.59828281553489        3.84351891869230
H           -2.97929258716145        2.51416980201084        2.31755676899107
O           -1.64040135735081       -2.52706526862848       -1.20451670699198
H           -2.19265418254682       -1.79732013656468       -0.88463278396014
H           -2.20333667558703       -3.31308030619849       -1.09802935826600
O            1.61442470128205       -4.65593151318163        0.75070726745278
H            2.46758911878811       -4.99990892022330        0.44738600771675
H            1.48958683575911       -3.83342502811814        0.22923973604812
O            4.07263309818638       -2.54716087513281        1.97964643708375
H            3.96090023578006       -2.92515396265312        2.85806218500046
H            3.83672356546567       -3.24976585849710        1.35778313576333
O            2.44530251385447       -0.67888975122169       -2.73129444456412
H            2.39862111361530       -1.06411395351859       -3.62318737181565
H            1.52109133157012       -0.60002703672914       -2.45178664823155
O            6.16614885056092        4.13291390636425       -1.15676823579764
H            5.80530170211831        4.69465507033122       -0.45443323800688
H            7.09912427984655        3.99533694741238       -0.91294742947575
O            4.14811159959124       -4.71066135740483       -2.78267365662668
H            3.22582362522135       -4.49627644274843       -2.99999642726445
H            4.63861472927659       -3.97438860844293       -3.18022298812285
O            3.28037112505038        1.82096530880015        4.70541926851601
H            3.90808278425192        1.08206424459941        4.59557217568951
H            3.80884782637403        2.59807263080418        4.48434537651177
O           -1.15675605073795       -4.74145871997705        1.13129532656999
H           -0.21828107566040       -4.91665062305716        0.94873716432710
H           -1.63996664262016       -5.03309036661886        0.34364468372042
O           -8.63775375280958        2.13973843250274       -2.33443553038201
H           -8.40542498689384        3.07704871931259       -2.30421345239188
H           -8.94675595826142        1.97352834734186       -1.42811622533224
O            8.83643724175578        0.37586592066326       -0.87467091131180
H            8.82380913517975       -0.59980884670033       -0.99328669849730
H            7.92235932161793        0.56711073808174       -0.59759817686331
O           -4.80177856099403       -3.04780344375513       -1.76180797885350
H           -5.65275248943113       -3.41109028313702       -1.46802837337390
H           -4.44245361057312       -2.60351817590793       -0.96951509358935
O           10.12741853451990        1.60339171335858        1.35801809375891
H           10.33855352260626        0.98701769560568        2.09401914386806
H            9.64157915862934        1.03907869625120        0.73534375775155
O           -3.56473904173521        3.69114240491117       -2.37321137314640
H           -2.62195467539088        3.81152162903035       -2.18266611037099
H           -3.59499780753565        3.02457729507309       -3.08311096934435
O           -3.22945936631190       -2.97457654022602        5.17802035649805
H           -2.54141242372800       -2.28973501544485        5.14871473954531
H           -4.04515446505434       -2.48525725991961        5.00250317716099
O           -5.10795411914349       -5.11998851164213        0.39833385823223
H           -5.92135021702847       -4.83112996862858       -0.03627164260015
H           -5.00509299543347       -4.53501906266854        1.16316070101515
O           -0.16017111041413        1.88981612120648        0.39784590155376
H           -0.44474093634390        2.59433113564575        1.00758719695611
H           -0.93657922572349        1.30974461116260        0.32023490075445
O            1.55752931641041        4.86460853745158       -1.15426418417212
H            2.35227089594545        4.85109178987349       -1.70424068093537
H            1.85828959213604        4.74273420032618       -0.23834427469068
O           -0.20386650327385       -0.05947878167905       -1.72589086617829
H           -0.35468607814510        0.66891524929887       -2.35406926479057
H           -0.98797051597395       -0.08225990208435       -1.14622355141347
O            3.74863887930550        3.96499278216396       -2.74255325821549
H            4.08565354857664        3.62107498693674       -3.57652859872802
H            4.52402389605735        4.02600497537118       -2.16674515393791
O           -5.61603166077581       -1.43147018404571       -3.88496054412143
H           -5.27374429153268       -1.83369771661878       -3.06540170421877
H           -4.81725547456356       -1.32992823531720       -4.43512510426826
O            1.85159202989614       -3.63321390915039        3.30751704660226
H            1.80122597898539       -4.09531494247614        2.44999532937494
H            0.96822254908660       -3.73899518484722        3.69160804208743
O           -0.84816360607545       -1.84213156621200       -3.79126356732149
H           -0.72722657216978       -1.31029392009397       -2.98408552749221
H           -1.12178057180967       -2.70790844782469       -3.45221582180964
O           -6.20755721922753        1.19991821842844       -3.36254067222464
H           -6.10251502454605        0.23483267552680       -3.47903916214751
H           -7.14355746650516        1.36478995749532       -3.16608892782450
O           -7.46775189309078        4.05313245776810       -0.69941684485724
H           -6.91689062277746        4.82600477597095       -0.52757108097189
H           -6.84440241978005        3.30739469037301       -0.67621923636626
O            8.76745126853531        3.29214998778057       -0.49481168359284
H            9.36209344358029        3.29265907727612        0.26429911127271
H            8.82671008423958        2.39397889701519       -0.84151686442457
O            6.11928750205453        2.60632107256090       -3.62022281755420
H            6.43105561244888        3.32909720281167       -3.06184286169669
H            5.58144888569401        2.05376298436136       -3.01719796506055
O           -9.44057397713526       -0.15921859862236       -0.25615570559857
H          -10.29411785551908       -0.08040744433898        0.22525997195028
H           -8.88727601413374        0.54330487472019        0.12441250238403
O            8.07098738536660        0.57614428336378       -3.64543667925764
H            7.50624518492545        1.35392925118676       -3.79146577942834
H            8.62903508034458        0.78358415325593       -2.88453330534462
O            1.81803891520413        1.39132020757044       -4.69190441151649
H            1.86120183803452        1.36299033213935       -3.72306173865787
H            0.91270822612715        1.69667112840920       -4.84440049172691
O           10.29934281881237       -0.48378965172406        3.05886246811233
H           10.44149655399224       -1.18094991978377        2.39946172594663
H            9.36377967875898       -0.55606224232184        3.30147179798320
O            5.05785987045276       -2.19347993189123       -3.66042553713503
H            5.45323772776303       -1.77401675507308       -2.87343196146520
H            4.75879745946008       -1.44615461135560       -4.20014460913163
O           -7.89739136658234        3.08146995400867        3.52806360893132
H           -7.26141005730853        2.50722770807970        3.98062839136775
H           -7.35741394606681        3.52498356461325        2.85953573626908
O           -9.83797728957643        1.35564725861743        2.62391778292594
H           -9.33235190475332        2.09390423179287        3.01655739028752
H           -9.29633412581174        0.58409964649670        2.83181523687312
O           -5.75728007236043        1.26930699229742        4.00857078890676
H           -6.07526924478567        0.37058694001562        4.15208384699034
H           -5.50815376829398        1.28940764431319        3.06991636290944
O           -3.16243674288142       -1.11959555928551       -5.17394265397885
H           -2.35781177084741       -1.35676937137491       -4.67557579849516
H           -3.19496063073517       -0.15464321135649       -5.12763757975646
O           -8.09452895878987       -1.80183512403880       -2.72498515592834
H           -7.43487910247093       -1.71059666268125       -3.42820225587145
H           -8.88585295145159       -1.31441545348753       -3.01045157987064
O           -3.09506933809276        1.26200080999559        5.07826219209655
H           -4.05353932578189        1.21809753831107        4.92914840439560
H           -2.73964982880379        0.45071645430566        4.69883675014123
O            7.90909416926953       -2.31483207599900       -3.93902745200919
H            6.95661795380991       -2.46908543896519       -4.03248419079377
H            8.04447550733896       -1.39118696021599       -4.18542628513161
O            4.48267145154117        0.39449300698203       -4.75176743224099
H            5.10774077350126        1.11888706916277       -4.85071247543943
H            3.60984152611735        0.75380704559238       -4.96294682144925
O            1.50049373700814       -1.39279348755100       -5.23900799258012
H            1.63200768506548       -0.44107027087971       -5.36503546306390
H            0.57702886060802       -1.48341308469078       -4.95120264503139
O          -10.25004358927998       -0.02158750962576       -2.90420634790341
H           -9.78925504645516        0.78613284405901       -3.17023867611186
H          -10.00739818315684       -0.11450873930347       -1.96435542072914
O           10.54854240927295       -2.22736848892568        0.82876907619422
H            9.96102436880978       -2.36111168193571        0.06788903985048
H           11.23299926741251       -1.62931970359769        0.48515288996273
O            7.07980399268392       -4.25445871632884        0.18605102498846
H            7.72384983171427       -4.89964536617031       -0.11125758230337
H            7.45526029731248       -3.88821202016928        1.01581815553888
O            8.39944366705134       -3.24623053474941        2.38613858472586
H            8.00021462679575       -2.38252267356217        2.53707102397634
H            9.27490917216327       -3.05555996791361        2.01962497990770
O           11.73055209858618        0.01621922441361       -0.37033407306739
H           10.94282971654405        0.17727023864612       -0.90038567137455
H           11.71578540732694        0.70514559751247        0.30533223722461
O           -3.17909494896338       -3.76705357898541       -3.91146412940278
H           -3.39527675446243       -3.19088108917941       -4.65272822159536
H           -3.70251050015339       -3.42789965166633       -3.16621836539722
O           -9.82391106999183        2.71660961059569        0.12417103551265
H           -9.10221857313116        3.36319616899408        0.10397712315850
H           -9.75062685198150        2.27800488645784        0.98838408858713
O           -4.86332701448324        5.12240020091116       -0.33851233794539
H           -4.07175125623339        5.56505332084626        0.00653989966069
H           -4.61273077136212        4.87714254341501       -1.23977074621169
O            3.31932912737660       -2.23287851628310        5.22334380918922
H            2.61947161284210       -1.58546949144907        5.40674860948838
H            2.87849613674737       -2.91665814887700        4.69830475760957
O           -7.39646170368238       -3.94759953961104       -1.05481612254724
H           -7.70838509750509       -3.42629807892906       -1.81083378311371
H           -7.97085104194897       -3.65810232968000       -0.32910784022136
O           -0.73768584503164       -4.77605849366541       -3.08340203329758
H           -1.06097882028500       -4.79370370400564       -2.17654742945605
H           -1.53725382557883       -4.65881119858967       -3.61968150208175
O           -2.15016465120189        5.51047131147091        0.12838138526030
H           -1.63201442466935        5.23318341310863        0.89317308400200
H           -1.68707456332555        5.13118180476165       -0.63123426255346
O          -11.81601651594048        0.11936988266763        1.04803445790060
H          -12.12630080968803        0.69888739574185        0.32507760376968
H          -11.45789959564765        0.70525938900179        1.73062462793239
O          -12.02890301780248        1.59143697114331       -1.25727228299958
H          -11.66835064999294        1.07079102997970       -1.98827165105584
H          -11.31791903145918        2.18881093363109       -0.98178742396098
O          -11.58833550165983       -2.58131133585816        0.39166687993809
H          -11.85606672351040       -1.75710019686429        0.82841635318973
H          -11.65789235274878       -2.39682794614802       -0.54712781342936
O           -0.86055688790749       -4.01405085937515        3.89736442003189
H           -1.58574185029136       -4.15671737332042        4.51671364907381
H           -1.06929135829999       -4.50520185328879        3.09265748512119
