306
 energy: -589.328858966906 gnorm: 0.004549032939 xtb: 6.6.1 (8d0f1dd)
N            1.30666440020000       -0.00000000010000       -0.00000000030001
F           -1.23282176610000       -0.00000000000000        0.00000000020000
H            1.64181507044673       -0.95806807941928        0.01272540008669
H            1.62553696095134        0.46340295960328       -0.84242437804093
H            1.63846615534857        0.49858880184976        0.82261081038764
H            0.20446531330000       -0.00000000000000        0.00000000020000
O            1.58637427567040        2.23207838823212       -1.98868255317863
H            2.28671064433016        2.85161949479843       -2.26225596888715
H            1.30201892152484        2.57182454079008       -1.12816328956834
O            3.81448796915336       -1.56266723559819       -0.59586396845064
H            3.37546973850194       -1.40968579750624       -1.44651744819696
H            3.93367595789456       -2.52692995183277       -0.52829458189060
O            3.44362203387025        2.89226513024507       -0.06565188271885
H            3.10797523949340        2.39262916624871        0.69319930145442
H            3.92117077638434        3.65564567611189        0.30557471538419
O            4.75875017642844        5.06337269735607        1.06600536892725
H            4.97566029823821        4.44336294901348        1.78341330984736
H            3.88109097123316        5.39933131553307        1.29721654560980
O            4.80552247873046       -0.32485472259139        3.87539966770645
H            4.38850743292885       -1.08895301683336        4.31901139840673
H            5.76740480085475       -0.45805880150049        3.90561269360473
O           -2.07662808025073        0.64013752520249        2.31969314468113
H           -1.84486669142093       -0.15265018540664        2.83082463510948
H           -1.78231128767184        0.43799296930611        1.40377603808974
O            4.33665180031164        1.14203144193828       -1.98413895260029
H            3.89072456798413        1.70686460169464       -1.32716716450417
H            3.63708063857004        0.64853445032528       -2.44351170158151
O           -0.73940084636524       -2.09476932148274        1.63048120133730
H           -1.10099819668777       -1.46746899343139        0.98147211374838
H           -0.88539793018245       -2.97594658725220        1.25490184191650
O           -6.10755859784982       -0.58604004716826       -0.71974822275100
H           -6.79437249601585       -0.88086238761812       -1.34499571178435
H           -6.50182479339823        0.14659298791530       -0.21347719118951
O            4.97358327068046        2.83524709918067        2.72075582121217
H            4.72740457069200        2.07799508411635        2.17106998210458
H            5.92867764849395        2.73917095355992        2.86202110476239
O            1.16853771305104       -2.68189323711549       -0.93266305812974
H            0.19937693414066       -2.67235208616025       -1.03064173513499
H            1.50062208465000       -2.84618533476062       -1.83585826116292
O            1.93029546506519        2.03798624385474        2.22262066280148
H            2.54328537315897        1.78789181198774        2.93655940411619
H            1.06114986873495        1.98508261901463        2.66002257608504
O            6.31901158293254        1.49119202263098        0.08671791506967
H            5.59010887348838        0.97555210953877        0.48479555420141
H            5.88929735458219        2.19498021414733       -0.42247097744233
O            4.10333850093004        0.41989521167929        1.29886260003390
H            4.27455219299615       -0.02231228748152        2.15180410416016
H            3.99244278475983       -0.31271160505463        0.66516105090365
O            7.50458112971181       -0.25277030132852        3.20277403430295
H            7.15728130692948       -0.52405747600624        2.33119653247607
H            7.58556466178303        0.71439997887544        3.11963309429706
O            2.01026265099217        4.80506624882651        1.58547867375755
H            1.13743569901170        5.11409919413886        1.85574128203852
H            2.01968111228383        3.85550747849608        1.80010089977384
O           -3.42777650555305       -3.60264869193912        2.32396206069115
H           -3.31507059554263       -3.44883487332254        3.28151003951664
H           -2.65219865742333       -4.09377925159834        2.02848127347291
O            1.18967560749011       -0.07174888671648        4.95706516796255
H            1.80031412448705        0.65483170912923        5.15430023862296
H            1.42721267481132       -0.33054943540978        4.04165667904962
O           -3.41083347695848        0.35814578331599       -1.52332936782040
H           -2.74832061890596        0.02935117729196       -0.88916697628255
H           -4.25356148480349       -0.05214343741298       -1.27416195055967
O           -5.68828024031107        3.51632664257620        1.77925452854518
H           -5.51582566783610        4.07491298027984        1.00371888033972
H           -4.85178225480856        3.49688910808045        2.27476657519005
O           -4.69112187534578        0.76086969310141        1.57504168133284
H           -4.91514840428526        1.36592250875192        0.84528053598254
H           -3.75732851138219        0.95023476872598        1.78820735678500
O           -2.81701880953965        2.54264694889897        0.26021645779002
H           -2.95378127545788        3.47644981664199        0.04411369602991
H           -3.13411234524145        2.02167176567150       -0.49411039534464
O           -5.41919278840377        2.26821041966901       -0.82149595444995
H           -4.79060564911461        2.90724161658250       -1.18677377645661
H           -5.62319746570741        1.68789941653854       -1.58089558639457
O           -0.72359554992002        2.45471947049942       -4.07320747573481
H           -1.66215126207843        2.32758911932721       -4.26577375802886
H           -0.66960819931098        3.11313971383687       -3.35855176656412
O            6.39663683114566       -1.35840074608713        0.99421499502331
H            5.61426592651773       -1.83593988409033        1.31019841031442
H            6.30096652059829       -1.30072219161600        0.02900870075260
O            1.67383857607797       -3.45444956563837       -3.54117394156483
H            0.85569505682815       -3.97965883359384       -3.55894009541703
H            1.64023295007802       -2.87629303466053       -4.31774549865872
O            1.73768987951805       -1.06657512258366        2.47930848737599
H            2.52921065506739       -1.63201272145199        2.45643880963589
H            0.99303521502729       -1.66526980236690        2.30314552479136
O           -7.37577189142469        1.35888923009182        0.93987657325584
H           -6.85185161242901        2.15522963184956        1.13061234313459
H           -7.36425915560595        0.83400987555799        1.75540008810931
O           -0.68387515694469        4.38908319262354        2.43690071078728
H           -1.61191526586699        4.19485907133574        2.67916013394326
H           -0.20782925371116        3.88455314650360        3.11351596778089
O            4.23044033119458       -4.29907397752088       -0.22609724111101
H            5.19113765452634       -4.31764076891928       -0.06748634225334
H            4.15301178487106       -4.51729927310167       -1.18738350165021
O            7.68118678266423        2.38012315724907        2.32296574678356
H            8.64436322138721        2.41538373903954        2.20769890031897
H            7.34358220416759        2.18235715893790        1.42933233244661
O           -0.80442784547653        4.09912216905099       -1.81606767808647
H            0.04511653376231        4.59162188664827       -1.79533777546356
H           -0.64498193048906        3.41956774848271       -1.13189088955311
O           -1.32872067559129       -1.20250928040856        4.27857311746960
H           -0.52035073237090       -0.88724697494475        4.71260346902736
H           -1.03849555241581       -1.89198283775047        3.65694144466024
O            6.28624976479855       -0.82090806003104       -1.75171770374252
H            5.59729001155287       -0.14251938165217       -1.63944594229338
H            6.88381696419683       -0.45977355710600       -2.43035557868366
O            8.66433088739802       -2.25964353317315       -1.26888194985650
H            7.85387006948840       -2.60625507322525       -0.86250045537033
H            8.50622296107320       -2.35754625667661       -2.23249594013079
O           -3.46935753557711       -1.53502566923395        0.54676487168728
H           -3.49408258191614       -2.22179294923338        1.24337356349714
H           -4.03080008707538       -0.80742545794550        0.86140194795982
O           -5.03263163249834       -1.42467868116585        3.48750433160543
H           -4.64459049188484       -0.70438644607399        2.97525211489709
H           -5.19213639719126       -2.11551213412069        2.81821102925435
O           -6.02181977729818       -2.59154923836429        1.21769776429018
H           -6.93632034557590       -2.90690345184693        1.21531379010876
H           -6.00196859018434       -1.90792899751130        0.52272668772813
O           -7.75354061787249       -0.73327534330608        2.79674905774352
H           -6.90038017695340       -1.11890109513438        3.04931484653716
H           -8.17793952680643       -1.40733736640189        2.24146153268330
O           -2.77653890605295       -5.20272387171651       -1.11617163624557
H           -3.09898665256491       -5.42427168961820       -1.99549389125531
H           -3.59369147661799       -5.15941769554275       -0.56493184855777
O           -0.29414010173257        2.11318591475525        3.86308429212705
H           -0.09019679112287        1.54791713628120        4.61942062733491
H           -1.03281340186330        1.67035636790652        3.40887825719842
O           -3.40760196492732        1.52742502631292       -4.00426505792800
H           -4.37688807320344        1.52800097210797       -4.07665102167027
H           -3.26426278877340        1.01197765218577       -3.18697498745620
O           -8.75683055056875       -2.61547507486946        0.84964548291586
H           -9.69168923842699       -2.89278893255361        0.87911483290092
H           -8.81183878266045       -1.81253302609256        0.29401484426777
O           -3.12116069700345        3.22994970926317        2.97048545289951
H           -3.01304091184496        2.64386889607876        3.74371557267359
H           -2.88485400305574        2.67149232433901        2.21465332420950
O           -1.58458413927081       -2.64876054012098       -1.23921030339301
H           -2.02415045419836       -1.90711262455135       -0.79941307290435
H           -2.18837389084862       -3.40524880371681       -1.14315880076211
O            1.67280958414819       -4.77462392378865        0.75012359137066
H            2.53355227374785       -5.11478230638890        0.46786061622497
H            1.54899514186984       -3.98648954709677        0.18080449610442
O            4.07775990310430       -2.63717291422962        2.09548333032949
H            3.99690059259501       -3.13836044436129        2.91300631242225
H            3.85805814750703       -3.25395741705798        1.38196805907396
O            2.32136840225609       -0.67776044821357       -2.78468056294679
H            2.49720090921305       -1.12060423148674       -3.62649897334311
H            1.35882506703945       -0.53963283333945       -2.77108207948522
O            6.07911865816921        4.01294546979594       -1.20654363569736
H            5.70795305784380        4.59200327495337       -0.52207746589447
H            7.01043733903761        3.89702397830209       -0.94603864890015
O            4.09367915446752       -4.71674000761714       -2.87452052496890
H            3.19101649515811       -4.48510627106919       -3.14579988742930
H            4.62399140190713       -4.01428051885506       -3.28281190062578
O            3.26023452641398        1.79527901267637        4.65923151051475
H            3.89677397477478        1.07474496317672        4.48882166575223
H            3.74444871583189        2.59092784614722        4.40637691752517
O           -1.09060821943857       -4.89931656202660        1.12663652883770
H           -0.14970541863936       -5.08724203832967        0.97100430328137
H           -1.56434382135292       -5.21531140774382        0.34232278853413
O           -8.49750776362787        2.04962086700995       -2.40753366215231
H           -8.31175003141107        2.99824265627224       -2.40537129712992
H           -8.81896513199180        1.90003650983669       -1.50283638297172
O            8.73346897402728        0.42072063828024       -0.85364136382038
H            8.75235996305826       -0.55523267392210       -0.98958021005912
H            7.82338979431515        0.57466240412793       -0.54186013819189
O           -4.56368743892764       -2.92084803191090       -1.58469377488770
H           -5.38497136714666       -3.34671214423747       -1.28913563054112
H           -4.27362632861422       -2.37832006452062       -0.82840478189710
O           10.14918118603350        1.63065897149053        1.30186960386503
H           10.34750033518528        1.01193634871840        2.03883284970128
H            9.64163933961212        1.07810909780956        0.68512090465447
O           -3.54267564170321        3.77714013324537       -2.32354865994781
H           -2.61298197059106        4.03081111347510       -2.21632388961817
H           -3.54453491243616        3.10669918332916       -3.02744697871394
O           -3.28213382370071       -3.04013446412545        5.04119453042384
H           -2.59740112749260       -2.35192963834225        5.04867451539304
H           -4.10149946113802       -2.55120294213332        4.88237796219111
O           -5.00830669406955       -5.13108746687611        0.40348492289177
H           -5.81693143252203       -4.89796148800453       -0.07201982768502
H           -4.89317857527054       -4.43516597560773        1.06804602479653
O           -0.08522370856536        2.52465375617156        0.32938427916470
H           -0.27139197958668        3.15851819456111        1.04352621016954
H           -0.83774907115762        1.91171642642613        0.34639227963482
O            1.60581169833813        5.15139789504528       -1.22979679975832
H            2.36094417097788        4.94539815657227       -1.79717549213499
H            1.87347639453544        4.91002234002896       -0.32765397386548
O           -0.35840102821133        0.16058741800325       -2.51732179636839
H           -0.40521051322844        1.02288400298084       -2.97139017253997
H           -0.84307115743055        0.25106361255913       -1.68066898227951
O            3.66581512175922        3.96545710331205       -2.82374215149253
H            4.05738528850776        3.64238121101827       -3.64349488399457
H            4.38020450615144        3.90881289486810       -2.17334074297486
O           -5.47595747031615       -1.52670056493560       -3.84372701238221
H           -5.07685760998471       -1.92992906749235       -3.05414963052354
H           -4.73930394267888       -1.40551996165729       -4.47755212352183
O            1.86340094621887       -3.78065734532437        3.35137182887878
H            1.81541394467960       -4.19308107813860        2.47072516789904
H            0.97146331282010       -3.87000568230987        3.71825566114448
O           -1.08556603793503       -2.03331735111222       -3.97513769596203
H           -0.95866119320988       -1.30212279650912       -3.34155151408088
H           -1.13543377268043       -2.82137640677844       -3.41273014245790
O           -5.99591571169139        1.08674159182426       -3.22124690699414
H           -5.91600770559971        0.12147986168843       -3.35517143959109
H           -6.94035909689531        1.27945544644607       -3.09904858706716
O           -7.52828395266128        4.10219229275764       -0.81022007567644
H           -7.01706130963970        4.90557183421236       -0.65572334395952
H           -6.87302052602515        3.38761904478803       -0.72189973493691
O            8.67631679703756        3.29236427896629       -0.46204610569378
H            9.29246530424197        3.32067500350717        0.27906628598461
H            8.77203309827727        2.40055839105127       -0.81812941107826
O            5.95923396809021        2.55907349803371       -3.65712248439676
H            6.30311117224436        3.27615994027344       -3.10943151094907
H            5.41837596589370        2.03120188344092       -3.03340551795231
O           -9.34171975927195       -0.19645264886359       -0.25042391763686
H          -10.18228705955810       -0.09736016516633        0.24912661419556
H           -8.76638251369927        0.50365058855810        0.10100956640100
O            7.90856801754102        0.55669949702808       -3.57595098898737
H            7.32690077769243        1.31516984284525       -3.75734992656164
H            8.44564637513595        0.80203395812827       -2.81072523124939
O            1.78724389119632        1.45454889149531       -4.69724092278094
H            1.76457205631404        1.39902357395078       -3.73058404023829
H            1.00646425084931        1.99081239819970       -4.89614644392949
O           10.30779295426818       -0.45817528341547        3.00494281090566
H           10.40702860653984       -1.16801149173698        2.35059229924377
H            9.38530580235549       -0.51272967203619        3.29939157340910
O            5.07235967660240       -2.24735912900548       -3.75449728683981
H            5.31770952540600       -1.84285904020949       -2.90380836886422
H            4.80053462395678       -1.49567180217677       -4.30427684164821
O           -7.83857464417144        3.13530473219393        3.56989048424367
H           -7.23269690818418        2.59005328462045        4.09215629169429
H           -7.26189180292684        3.53653050059300        2.90325498845248
O           -9.74945845789035        1.41305534147398        2.59717616478987
H           -9.24128045655679        2.14517925771872        2.99890699026589
H           -9.22190981580102        0.63280442440671        2.80884526411154
O           -5.75860440369075        1.29535105358458        4.12152310475099
H           -6.16218240487778        0.42272016131902        4.17641004891994
H           -5.48591135082215        1.38988193502593        3.19385019286298
O           -3.26491370357264       -1.01892216324253       -5.35752735254350
H           -2.46164572565265       -1.41170415029843       -4.97286756106810
H           -3.19109490648189       -0.07192046957070       -5.17247393007920
O           -7.89956600432873       -1.67937880013522       -2.61540460653970
H           -7.30348255211374       -1.67268652545843       -3.37869256843559
H           -8.72952505805916       -1.25231802726286       -2.89141498919927
O           -3.03426607968599        1.22912731685155        4.94856979872361
H           -4.00228950462621        1.18642316121853        4.89259450646025
H           -2.71620770176298        0.35357007530220        4.70320666946954
O            7.93431729843760       -2.28729796762886       -3.91460015335125
H            6.98256844206591       -2.45849372600106       -3.99701352377744
H            8.03961025108891       -1.35212609762151       -4.13407125812077
O            4.38845779170582        0.30641026779065       -4.77001825622146
H            5.01586426860643        1.03572799442293       -4.78342271430790
H            3.52111392932858        0.69349202694685       -4.95414303322272
O            1.28508278241527       -1.29205015970511       -5.32395634799191
H            1.40114721547701       -0.32897728023995       -5.32215002697956
H            0.36084221615681       -1.44816125431814       -5.07842719821195
O          -10.18840374104347       -0.09060616779816       -2.88064176456305
H           -9.74270326537967        0.71375760648968       -3.18050766040729
H           -9.94922492019541       -0.13890408400014       -1.93633354894233
O           10.48482755527896       -2.33724026008935        0.87745215603801
H            9.88283773825920       -2.38754920261929        0.11726642240353
H           11.21808749241414       -1.79590082477019        0.54369522053835
O            7.00268835571862       -4.02011713555777        0.17841192061083
H            7.64962931209023       -4.69747635778328       -0.02809550210864
H            7.30911208812747       -3.63703196759911        1.02881203592600
O            8.27921622041452       -3.16941155374724        2.45674809233577
H            7.95024802974445       -2.29530848970257        2.69326169123580
H            9.17286492134737       -3.02094598318212        2.11480106024534
O           11.66593306352573       -0.12122749378754       -0.34901085327163
H           10.91089463835663        0.04397994500104       -0.92141916973333
H           11.65737520788664        0.60141298639118        0.29253334608445
O           -3.26013949249233       -4.03527603178695       -3.80134620004765
H           -3.32017336036995       -3.39513557665596       -4.51649440642720
H           -3.64954008071338       -3.59935859301911       -3.02565310038956
O           -9.76953651286875        2.63787234632301        0.02684988705695
H           -9.10531516304721        3.34329960956843       -0.01635968158872
H           -9.68281456701920        2.25633872688187        0.91679547276240
O           -4.99191176964459        5.27312090928712       -0.38022121781790
H           -4.20346196407983        5.64710524013493        0.03873853023145
H           -4.66572554815291        4.95259104162308       -1.23215429233497
O            3.20643025085537       -2.13780614614814        5.19116896146888
H            2.49607695548702       -1.51396279684266        5.40008438732812
H            2.77965265085241       -2.82354240005045        4.65599832584730
O           -7.19759504031687       -3.94445025902332       -1.11764655884676
H           -7.46313962707300       -3.33349290811186       -1.82363622011422
H           -7.82979460561544       -3.75011866728682       -0.40959175127958
O           -0.68952884584438       -4.84252736541519       -3.07621772752694
H           -0.92749539222516       -4.90025908377730       -2.14508419731313
H           -1.53806564165927       -4.76787555590211       -3.54262856451232
O           -2.26213895532863        5.37620574726120        0.22042672821092
H           -1.67286924870426        5.29818905755988        0.98056570262793
H           -1.69715834046403        5.24155419962825       -0.55510922566875
O          -11.70804413610508        0.09294508733854        1.07553042897780
H          -12.04745634438451        0.64219085954427        0.34206688174272
H          -11.36527882687325        0.70945592651228        1.73852305265504
O          -12.01474951083645        1.50045523561230       -1.25697831591698
H          -11.66161372214026        0.97172705566682       -1.98510271673358
H          -11.30149743935828        2.10324950727310       -0.99760116129926
O          -11.43307599941823       -2.57376141894432        0.30773520120968
H          -11.72576481646378       -1.79105113261315        0.80015273916445
H          -11.45216523279139       -2.30579723444129       -0.61333135702731
O           -0.87446013170618       -4.07535752237355        3.89837426294228
H           -1.61732716499884       -4.22139761180772        4.49458040573181
H           -1.05812805395344       -4.56538556824634        3.08733817923455
